<?xml version="1.0" encoding="UTF-8"?>

<!-- generated on 2026-04-26 15:50:58 by Eclipse SUMO netedit Version 1.18.0
-->

<routes xmlns:xsi="http://www.w3.org/2001/XMLSchema-instance" xsi:noNamespaceSchemaLocation="http://sumo.dlr.de/xsd/routes_file.xsd">
    <!-- Routes -->
    <route id="r_0" edges="241668022 1395997593 1395997592 1395997591 1395997595 1395997594 241700995 241700991 241700993 241969268 241969266 241969270 741826823 741826822 241945081 691499180 459074942 459074945 625604212 625604211 242248483 242267458 242267463 242267461 750206424 242267456 242267464 740402236 750206432 316157541 750211280 750211277 316157536 316157535 316157539 750206436 750206435 316157529 316157531 750211291 750211290 316157527 653681759 653681760 316157538 724457825 316157548 722326569 722326568 722326552 722326551 722326544 722326543 722326538 722326537 722326532 722326531 722326528 722326527 761322887 761322886 761322885 761322884 722326523 722326522 722326514 722326513 722326510 722326509 722326504 722326503 722326493 761321852 761321851 761321850 761321849 722326492 722326490 722326489 722326481 722326480 722326476 722326475 722326468 761320522 761320525 761320524 761320523 722326467 722326465 722326464 722326460 722326459 722326455 722326454 722326363 722326362 789731174 789731169 789731168 789731173 437065543 789731182 789731181 789731192 789731191 722326451 722326450 722326436 722326435 722326440 722326439 437065547 437065548 437065546 789731221 789731220 437065551 594650795 761319251 437065550 437065544 595040400 595040399 595048138 595048132 595048749 595048748 437066945 437066942 503468445 503468444 595061385 595061384 596047829 691049898 595093820 595094377 437066941 595099957 595099953 1167584673 436420874 1167584677 1167584676 503468448 595113893 595113892 597112168 597112153 597112149 597112204 597112201 595926372 595926371 597112182 595926382 603041283 603041278 597403468 599003638 597403473 597112160 597112159 595206135 595206134 597826376 597826375 531431915 531431911 597826370 597826369 597826350 597826349 597826363 597826361 596983215 596983216 440755907 440755905 596983213 595882835 596988533 595882831 596988531 595882820 596994505 596994504 595882816 595882802 595882796 595882778 596685174 596685180 597826332 597826328 790225587 596685187 596685186 595882760 595882775 595882748 596685192 596685191 595882744 595882718 597826344 595882701 595882697 597024836 597024835 437036633 597028295 597028291 416548014 595882676 595882672 595135649 595882659 595882656 595135648 595135644 595135642 595882645 837319434 837319433 837319432 837319435 595882641 595882624 597919773 595882621 595882616 595882613 595882611 717452592 595882604 595882603 596237205 598203312 437694197 596237210 596237209 594717391 594717388 596237213 598203305 594716836 598203296 598203295 594716830 594716831 594716835 595882557 595882556 595882551 595882550 595649625 598203292 598203290 595649624 595882547 595882546 595882543 595882542 595882509 595882508 438078877 598203281 598203280 598203285 598203284 595649629 595649628 595882523 595882519 595882539 595882538 594720321 594720317 800175819 595882535 595882534 438217944 595882531 595882530 438217946 438217945 317785912 312571642 312571653 312571641 312571651 312571636 969549695 312571649 312571638 312571646 596162633 596162631 312571635 312571644 312635820 312635829 312635823 312635826 312635812 312635832 312633344 312633346 312633095 312633099 312633096 312633101 312633092 312633100 312444591 312444667 312444595 312444668 312444598 312444645 312444599 312444685 312444659 312444675 638126139 312444596 312444627 312444606 312444673 312444652 312444707 799407499 799407498 312444611 312444678 312444594 312444669 312444618 312444586 799407519 799407518 312444630 312444655 312444628 312444699 312444623 306988747 306988748 312444662 312444626 312444701 312444604 312444702 385917392 385917395 1167593038 531577646 1167593043 547599348 547599347 547164243 598405269 598405268 598405265 598405264 547164226 598405261 598405260 547164230 598394909 598394908 547164250 598394913 598394912 598394917 598394916 598394921 598394920 598394929 598394924 547164228 598394948 598394944 547599362 598385787 598385786 547599358 547599353 598385796 598385794 596233804 598405272 795246105 795246106 598405277 819495257 819495256 1205158256 1205158257 596233803 598405257 1074476938 1234880092#0 1234880092#1 1234880091 1234880090 1234880089 1234880086 1234880085 1195552297 1236878508 1236878507 1234880079 1234880080 1234880076 1234880075 1234880072 1234880071 1195552298 1282201215 1282201216 1234880097 1301989564#0 1301989564#1 1301989565 751070405#0 751070405#1 751070405#2 1317382642 1317382639 1054658996 1054658994 1220143060 1220143061 1301534592 1302203612 1302203615 1302203616 1302203611 751070404 604929121 1307036916 604926641 1307036915 1307036914 734735086 734735085 762696560 762696559 496960047 496960042 436940946 1167603991 1167603990 1167603994 436940945 795315247 795315248 795315255 795315256 795315261 622290310 622290309 795315263 795315264 750250943 750250942 654277421 654277422 795321194 795321195 654277415 654277414 1085245087 1167603184 1167603185 600580377 655199094 655199095 600580370 600580374 600580369 600828193 795425658 795425659 1167606316 1167606315 1167606317 655199110 655199098 655199099 655199104 1393075925 1393075924 655199105 795428302 795428305 313735890 795437091 795437092 585332023#0 585332023#1 585332023#2 795437116 795437117 547112057 547112065 475598764 475598767 599886167 1167607289 600826812 1307036913 599886168 318491371 318491372 622308033 1307036910 317980814 321600988 342983923 342983940 302869665 302869664 1270188022 1270188021 1270188036 317945847 1270188034 1270188035 343010749 317945851 1270188033 1270188047 317945849 317945852 302862364 302862365 190626740 190626741 767617138 767617137 342996530 762464725 619718797 317944474 762464737 318492696 318493171 819500014 819500013 702447323 771138131 318493173 819500017 290890774 290890776 702447313 702447320 702447319 302581449 302581450 317979401 290899644 767896373 1198418235 290899645 445394437 319360671 502872285 502872284 319360668 249866648 249866649 819500019 315369156 425419773 616762411 311743226 616762413 293011624 616762415 293011622 582290422 302546374 85957302 85953441 319156414 180683767 543518079 302562821 543518077 543518078"/>
    <!-- Vehicles, persons and containers (sorted by depart) -->
    <flow id="f_0" begin="0.00" from="241668022" to="543518078" end="21600.00" period="exp(0.75)"/>
    <flow id="f_1" begin="0.00" from="543518074" to="241367091" end="21600.00" period="exp(0.75)"/>
</routes>
