<?xml version="1.0" encoding="UTF-8"?>

<!-- generated on 2026-04-26 15:46:27 by Eclipse SUMO netedit Version 1.18.0
<configuration xmlns:xsi="http://www.w3.org/2001/XMLSchema-instance" xsi:noNamespaceSchemaLocation="http://sumo.dlr.de/xsd/neteditConfiguration.xsd">

    <input>
        <sumo-net-file value="neva.net.xml"/>
    </input>

    <output>
        <output-file value="neva.net.xml"/>
    </output>

    <processing>
        <geometry.min-radius.fix.railways value="false"/>
        <geometry.max-grade.fix value="false"/>
        <offset.disable-normalization value="true"/>
        <lefthand value="0"/>
    </processing>

    <junctions>
        <no-turnarounds value="true"/>
        <junctions.corner-detail value="5"/>
        <junctions.limit-turn-speed value="5.50"/>
        <rectangular-lane-cut value="0"/>
    </junctions>

    <pedestrian>
        <walkingareas value="0"/>
    </pedestrian>

</configuration>
-->

<net version="1.16" junctionCornerDetail="5" limitTurnSpeed="5.50" xmlns:xsi="http://www.w3.org/2001/XMLSchema-instance" xsi:noNamespaceSchemaLocation="http://sumo.dlr.de/xsd/net_file.xsd">

    <location netOffset="-14710.50,-6193498.82" convBoundary="0.00,0.00,390770.26,468071.38" origBoundary="30.333895,55.877691,37.489190,59.805599" projParameter="+proj=utm +zone=37 +ellps=WGS84 +datum=WGS84 +units=m +no_defs"/>

    <type id="highway.motorway" priority="14" numLanes="2" speed="39.44" allow="private emergency authority army vip passenger hov taxi bus coach delivery truck trailer motorcycle evehicle custom1 custom2" oneway="1"/>
    <type id="highway.primary" priority="12" numLanes="2" speed="27.78" disallow="tram rail_urban rail rail_electric rail_fast ship" oneway="0"/>
    <type id="highway.primary_link" priority="7" numLanes="1" speed="22.22" disallow="tram rail_urban rail rail_electric rail_fast ship" oneway="0"/>
    <type id="highway.service" priority="1" numLanes="1" speed="5.56" allow="pedestrian delivery bicycle" oneway="0"/>
    <type id="highway.tertiary" priority="10" numLanes="1" speed="22.22" disallow="tram rail_urban rail rail_electric rail_fast ship" oneway="0"/>
    <type id="highway.tertiary_link" priority="5" numLanes="1" speed="22.22" disallow="tram rail_urban rail rail_electric rail_fast ship" oneway="0"/>
    <type id="highway.trunk" priority="13" numLanes="2" speed="27.78" disallow="pedestrian bicycle tram rail_urban rail rail_electric rail_fast ship" oneway="0"/>
    <type id="highway.trunk_link" priority="8" numLanes="1" speed="22.22" disallow="pedestrian bicycle tram rail_urban rail rail_electric rail_fast ship" oneway="0"/>
    <type id="highway.unclassified" priority="4" numLanes="1" speed="13.89" disallow="tram rail_urban rail rail_electric rail_fast ship" oneway="0"/>

    <edge id=":10001564620_0" function="internal">
        <lane id=":10001564620_0_0" index="0" allow="private emergency authority army vip passenger hov taxi bus coach delivery truck trailer motorcycle evehicle custom1 custom2" speed="26.39" length="21.53" shape="313434.51,108295.57 313437.35,108292.62 313440.72,108289.13 313444.36,108284.69 313448.01,108278.90"/>
    </edge>
    <edge id=":10001564620_1" function="internal">
        <lane id=":10001564620_1_0" index="0" allow="private emergency authority army vip passenger hov taxi bus coach delivery truck trailer motorcycle evehicle custom1 custom2" speed="25.00" length="21.53" shape="313437.89,108297.92 313448.01,108278.90"/>
        <lane id=":10001564620_1_1" index="1" allow="private emergency authority army vip passenger hov taxi bus coach delivery truck trailer motorcycle evehicle custom1 custom2" speed="25.00" length="21.53" shape="313440.72,108299.42 313450.83,108280.42"/>
    </edge>
    <edge id=":10241079599_0" function="internal">
        <lane id=":10241079599_0_0" index="0" disallow="tram rail_urban rail rail_electric rail_fast ship" speed="13.89" length="0.28" shape="302791.11,120842.30 302791.17,120842.58"/>
    </edge>
    <edge id=":10241079600_0" function="internal">
        <lane id=":10241079600_0_0" index="0" disallow="tram rail_urban rail rail_electric rail_fast ship" speed="16.67" length="0.10" shape="302782.42,120800.52 302782.42,120800.52"/>
    </edge>
    <edge id=":10241079604_0" function="internal">
        <lane id=":10241079604_0_0" index="0" allow="private emergency authority army vip passenger hov taxi bus coach delivery truck trailer motorcycle evehicle custom1 custom2" speed="20.84" length="21.09" shape="302734.16,120840.61 302727.65,120842.47 302722.54,120844.72 302718.43,120847.01 302714.90,120848.96"/>
    </edge>
    <edge id=":10241079604_1" function="internal">
        <lane id=":10241079604_1_0" index="0" allow="private emergency authority army vip passenger hov taxi bus coach delivery truck trailer motorcycle evehicle custom1 custom2" speed="25.00" length="21.10" shape="302734.16,120840.61 302713.53,120845.02"/>
        <lane id=":10241079604_1_1" index="1" allow="private emergency authority army vip passenger hov taxi bus coach delivery truck trailer motorcycle evehicle custom1 custom2" speed="25.00" length="21.10" shape="302733.51,120837.48 302712.87,120841.89"/>
    </edge>
    <edge id=":10241084422_0" function="internal">
        <lane id=":10241084422_0_0" index="0" allow="private emergency authority army vip passenger hov taxi bus coach delivery truck trailer motorcycle evehicle custom1 custom2" speed="23.62" length="23.81" shape="302519.15,120872.68 302526.09,120870.78 302532.13,120868.30 302537.18,120865.79 302541.16,120863.80"/>
    </edge>
    <edge id=":10241084422_1" function="internal">
        <lane id=":10241084422_1_0" index="0" allow="private emergency authority army vip passenger hov taxi bus coach delivery truck trailer motorcycle evehicle custom1 custom2" speed="25.00" length="23.85" shape="302519.15,120872.68 302542.42,120867.63"/>
        <lane id=":10241084422_1_1" index="1" allow="private emergency authority army vip passenger hov taxi bus coach delivery truck trailer motorcycle evehicle custom1 custom2" speed="25.00" length="23.85" shape="302519.76,120875.82 302543.09,120870.76"/>
    </edge>
    <edge id=":10241084423_0" function="internal">
        <lane id=":10241084423_0_0" index="0" allow="private emergency authority army vip passenger hov taxi bus coach delivery truck trailer motorcycle evehicle custom1 custom2" speed="23.62" length="24.26" shape="303045.29,120749.48 303049.79,120749.32 303055.57,120749.10 303062.23,120748.50 303069.39,120747.17"/>
    </edge>
    <edge id=":10241084423_1" function="internal">
        <lane id=":10241084423_1_0" index="0" allow="private emergency authority army vip passenger hov taxi bus coach delivery truck trailer motorcycle evehicle custom1 custom2" speed="25.00" length="24.26" shape="303045.91,120753.37 303069.39,120747.17"/>
        <lane id=":10241084423_1_1" index="1" allow="private emergency authority army vip passenger hov taxi bus coach delivery truck trailer motorcycle evehicle custom1 custom2" speed="25.00" length="24.26" shape="303046.72,120756.47 303070.16,120750.28"/>
    </edge>
    <edge id=":10241084427_0" function="internal">
        <lane id=":10241084427_0_0" index="0" allow="private emergency authority army vip passenger hov taxi bus coach delivery truck trailer motorcycle evehicle custom1 custom2" speed="20.84" length="34.19" shape="302512.33,120891.67 302506.30,120892.17 302497.15,120892.96 302487.09,120894.02 302478.35,120895.35"/>
    </edge>
    <edge id=":10241084427_1" function="internal">
        <lane id=":10241084427_1_0" index="0" allow="private emergency authority army vip passenger hov taxi bus coach delivery truck trailer motorcycle evehicle custom1 custom2" speed="25.00" length="34.19" shape="302511.77,120888.06 302478.35,120895.35"/>
        <lane id=":10241084427_1_1" index="1" allow="private emergency authority army vip passenger hov taxi bus coach delivery truck trailer motorcycle evehicle custom1 custom2" speed="25.00" length="34.19" shape="302511.10,120884.93 302477.72,120892.21"/>
    </edge>
    <edge id=":10241084437_0" function="internal">
        <lane id=":10241084437_0_0" index="0" disallow="tram rail_urban rail rail_electric rail_fast ship" speed="16.67" length="9.64" shape="302647.25,120546.12 302648.98,120548.34 302650.48,120549.58 302652.21,120550.60 302654.63,120552.15"/>
    </edge>
    <edge id=":10241084437_1" function="internal">
        <lane id=":10241084437_1_0" index="0" disallow="tram rail_urban rail rail_electric rail_fast ship" speed="16.67" length="10.27" shape="302644.59,120547.89 302646.53,120550.20 302648.28,120551.43 302650.06,120552.61 302652.14,120554.75"/>
    </edge>
    <edge id=":10241084439_0" function="internal">
        <lane id=":10241084439_0_0" index="0" disallow="tram rail_urban rail rail_electric rail_fast ship" speed="11.11" length="9.81" shape="302404.60,120181.48 302405.16,120184.35 302405.46,120186.37 302406.07,120188.26 302407.53,120190.72"/>
    </edge>
    <edge id=":10241084439_1" function="internal">
        <lane id=":10241084439_1_0" index="0" disallow="tram rail_urban rail rail_electric rail_fast ship" speed="11.11" length="10.44" shape="302401.27,120182.83 302402.48,120185.57 302402.92,120187.70 302403.44,120189.83 302404.90,120192.54"/>
    </edge>
    <edge id=":10241084442_0" function="internal">
        <lane id=":10241084442_0_0" index="0" disallow="tram rail_urban rail rail_electric rail_fast ship" speed="11.11" length="0.28" shape="302465.71,119834.14 302465.55,119834.38"/>
    </edge>
    <edge id=":10241084446_0" function="internal">
        <lane id=":10241084446_0_0" index="0" disallow="tram rail_urban rail rail_electric rail_fast ship" speed="13.89" length="0.45" shape="302431.16,119689.12 302431.29,119689.10 302431.38,119689.09 302431.47,119689.09 302431.60,119689.10"/>
    </edge>
    <edge id=":10241084448_0" function="internal">
        <lane id=":10241084448_0_0" index="0" disallow="pedestrian bicycle tram rail_urban rail rail_electric rail_fast ship" speed="23.61" length="0.30" shape="316382.65,97843.95 316382.36,97843.88"/>
        <lane id=":10241084448_0_1" index="1" disallow="pedestrian bicycle tram rail_urban rail rail_electric rail_fast ship" speed="23.61" length="0.30" shape="316383.39,97840.84 316383.09,97840.77"/>
    </edge>
    <edge id=":10241084453_0" function="internal">
        <lane id=":10241084453_0_0" index="0" disallow="pedestrian bicycle tram rail_urban rail rail_electric rail_fast ship" speed="22.22" length="6.20" shape="316298.75,97703.95 316299.95,97702.58 316300.56,97701.40 316301.23,97700.32 316302.63,97699.22"/>
    </edge>
    <edge id=":10241084458_0" function="internal">
        <lane id=":10241084458_0_0" index="0" disallow="pedestrian bicycle tram rail_urban rail rail_electric rail_fast ship" speed="22.22" length="0.53" shape="316332.30,97832.02 316332.07,97831.96 316331.91,97831.92 316331.76,97831.86 316331.55,97831.77"/>
        <lane id=":10241084458_0_1" index="1" disallow="pedestrian bicycle tram rail_urban rail rail_electric rail_fast ship" speed="22.22" length="0.53" shape="316333.04,97828.90 316332.96,97828.89 316332.91,97828.87 316332.86,97828.85 316332.79,97828.82"/>
    </edge>
    <edge id=":10241084459_0" function="internal">
        <lane id=":10241084459_0_0" index="0" disallow="pedestrian bicycle tram rail_urban rail rail_electric rail_fast ship" speed="25.00" length="0.40" shape="316554.17,97884.74 316554.00,97884.72 316553.88,97884.70 316553.76,97884.68 316553.59,97884.64"/>
        <lane id=":10241084459_0_1" index="1" disallow="pedestrian bicycle tram rail_urban rail rail_electric rail_fast ship" speed="25.00" length="0.40" shape="316554.52,97881.56 316554.46,97881.55 316554.42,97881.55 316554.39,97881.54 316554.33,97881.53"/>
    </edge>
    <edge id=":10858526437_0" function="internal">
        <lane id=":10858526437_0_0" index="0" allow="private emergency authority army vip passenger hov taxi bus coach delivery truck trailer motorcycle evehicle custom1 custom2" speed="25.00" length="0.10" shape="238628.68,157072.57 238628.68,157072.57"/>
        <lane id=":10858526437_0_1" index="1" allow="private emergency authority army vip passenger hov taxi bus coach delivery truck trailer motorcycle evehicle custom1 custom2" speed="25.00" length="0.10" shape="238626.44,157070.29 238626.44,157070.29"/>
        <lane id=":10858526437_0_2" index="2" allow="private emergency authority army vip passenger hov taxi bus coach delivery truck trailer motorcycle evehicle custom1 custom2" speed="25.00" length="0.10" shape="238624.20,157068.01 238624.20,157068.01"/>
    </edge>
    <edge id=":10858526438_0" function="internal">
        <lane id=":10858526438_0_0" index="0" allow="private emergency authority army vip passenger hov taxi bus coach delivery truck trailer motorcycle evehicle custom1 custom2" speed="25.00" length="8.21" shape="238241.15,157476.26 238239.79,157478.26 238239.18,157479.84 238238.57,157481.42 238237.21,157483.41"/>
        <lane id=":10858526438_0_1" index="1" allow="private emergency authority army vip passenger hov taxi bus coach delivery truck trailer motorcycle evehicle custom1 custom2" speed="25.00" length="8.21" shape="238238.70,157474.20 238237.35,157476.19 238236.74,157477.77 238236.12,157479.35 238234.77,157481.35"/>
    </edge>
    <edge id=":10858694479_0" function="internal">
        <lane id=":10858694479_0_0" index="0" allow="private emergency authority army vip passenger hov taxi bus coach delivery truck trailer motorcycle evehicle custom1 custom2" speed="25.00" length="8.21" shape="330204.74,79421.32 330205.08,79418.94 330204.94,79417.25 330204.80,79415.56 330205.15,79413.18"/>
        <lane id=":10858694479_0_1" index="1" allow="private emergency authority army vip passenger hov taxi bus coach delivery truck trailer motorcycle evehicle custom1 custom2" speed="25.00" length="8.21" shape="330204.74,79421.32 330205.57,79419.06 330206.49,79417.64 330207.42,79416.23 330208.25,79413.96"/>
        <lane id=":10858694479_0_2" index="2" allow="private emergency authority army vip passenger hov taxi bus coach delivery truck trailer motorcycle evehicle custom1 custom2" speed="25.00" length="8.21" shape="330207.84,79422.11 330208.67,79419.85 330209.60,79418.43 330210.52,79417.01 330211.35,79414.75"/>
    </edge>
    <edge id=":10858694480_0" function="internal">
        <lane id=":10858694480_0_0" index="0" allow="private emergency authority army vip passenger hov taxi bus coach delivery truck trailer motorcycle evehicle custom1 custom2" speed="25.00" length="8.21" shape="330299.49,79127.64 330299.16,79130.03 330299.32,79131.72 330299.47,79133.41 330299.14,79135.80"/>
        <lane id=":10858694480_0_1" index="1" allow="private emergency authority army vip passenger hov taxi bus coach delivery truck trailer motorcycle evehicle custom1 custom2" speed="25.00" length="8.21" shape="330296.38,79126.88 330296.06,79129.27 330296.21,79130.96 330296.36,79132.65 330296.04,79135.04"/>
    </edge>
    <edge id=":10858694481_0" function="internal">
        <lane id=":10858694481_0_0" index="0" allow="private emergency authority army vip passenger hov taxi bus coach delivery truck trailer motorcycle evehicle custom1 custom2" speed="25.00" length="8.21" shape="330472.53,78439.17 330472.17,78441.55 330472.29,78443.24 330472.42,78444.93 330472.05,78447.31"/>
        <lane id=":10858694481_0_1" index="1" allow="private emergency authority army vip passenger hov taxi bus coach delivery truck trailer motorcycle evehicle custom1 custom2" speed="25.00" length="8.21" shape="330472.53,78439.17 330471.68,78441.42 330470.74,78442.83 330469.80,78444.24 330468.95,78446.50"/>
        <lane id=":10858694481_0_2" index="2" allow="private emergency authority army vip passenger hov taxi bus coach delivery truck trailer motorcycle evehicle custom1 custom2" speed="25.00" length="8.21" shape="330469.44,78438.35 330468.59,78440.61 330467.65,78442.02 330466.71,78443.43 330465.86,78445.68"/>
    </edge>
    <edge id=":10858722646_0" function="internal">
        <lane id=":10858722646_0_0" index="0" allow="private emergency authority army vip passenger hov taxi bus coach delivery truck trailer motorcycle evehicle custom1 custom2" speed="25.00" length="8.21" shape="341589.73,48438.42 341591.76,48437.12 341592.95,48435.91 341594.14,48434.71 341596.17,48433.41"/>
        <lane id=":10858722646_0_1" index="1" allow="private emergency authority army vip passenger hov taxi bus coach delivery truck trailer motorcycle evehicle custom1 custom2" speed="25.00" length="8.21" shape="341591.17,48441.28 341593.20,48439.99 341594.38,48438.78 341595.57,48437.57 341597.60,48436.27"/>
    </edge>
    <edge id=":10871753327_0" function="internal">
        <lane id=":10871753327_0_0" index="0" disallow="pedestrian bicycle tram rail_urban rail rail_electric rail_fast ship" speed="13.89" length="0.10" shape="341835.78,47973.35 341835.78,47973.35"/>
    </edge>
    <edge id=":10871753329_0" function="internal">
        <lane id=":10871753329_0_0" index="0" allow="private emergency authority army vip passenger hov taxi bus coach delivery truck trailer motorcycle evehicle custom1 custom2" speed="27.78" length="8.21" shape="338734.19,55534.80 338736.40,55535.76 338738.07,55536.06 338739.74,55536.37 338741.95,55537.32"/>
        <lane id=":10871753329_0_1" index="1" allow="private emergency authority army vip passenger hov taxi bus coach delivery truck trailer motorcycle evehicle custom1 custom2" speed="27.78" length="8.21" shape="338732.63,55537.59 338734.84,55538.55 338736.51,55538.85 338738.17,55539.16 338740.39,55540.11"/>
    </edge>
    <edge id=":10871753330_0" function="internal">
        <lane id=":10871753330_0_0" index="0" allow="private emergency authority army vip passenger hov taxi bus coach delivery truck trailer motorcycle evehicle custom1 custom2" speed="27.78" length="0.10" shape="338715.24,55542.25 338715.24,55542.25"/>
        <lane id=":10871753330_0_1" index="1" allow="private emergency authority army vip passenger hov taxi bus coach delivery truck trailer motorcycle evehicle custom1 custom2" speed="27.78" length="0.10" shape="338716.80,55539.47 338716.80,55539.47"/>
    </edge>
    <edge id=":10871753331_0" function="internal">
        <lane id=":10871753331_0_0" index="0" disallow="pedestrian bicycle tram rail_urban rail rail_electric rail_fast ship" speed="11.11" length="0.10" shape="338325.09,55321.64 338325.09,55321.64"/>
        <lane id=":10871753331_0_1" index="1" disallow="pedestrian bicycle tram rail_urban rail rail_electric rail_fast ship" speed="11.11" length="0.10" shape="338326.69,55318.86 338326.69,55318.86"/>
    </edge>
    <edge id=":10871753332_0" function="internal">
        <lane id=":10871753332_0_0" index="0" disallow="pedestrian bicycle tram rail_urban rail rail_electric rail_fast ship" speed="22.22" length="0.10" shape="338599.68,55477.31 338599.68,55477.31"/>
        <lane id=":10871753332_0_1" index="1" disallow="pedestrian bicycle tram rail_urban rail rail_electric rail_fast ship" speed="22.22" length="0.10" shape="338601.24,55474.53 338601.24,55474.53"/>
    </edge>
    <edge id=":10871753334_0" function="internal">
        <lane id=":10871753334_0_0" index="0" disallow="pedestrian bicycle tram rail_urban rail rail_electric rail_fast ship" speed="16.66" length="0.10" shape="338454.85,55395.92 338454.85,55395.92"/>
        <lane id=":10871753334_0_1" index="1" disallow="pedestrian bicycle tram rail_urban rail rail_electric rail_fast ship" speed="16.66" length="0.10" shape="338456.41,55393.14 338456.41,55393.14"/>
    </edge>
    <edge id=":11071930636_0" function="internal">
        <lane id=":11071930636_0_0" index="0" disallow="pedestrian bicycle tram rail_urban rail rail_electric rail_fast ship" speed="22.22" length="15.88" shape="199017.50,212771.05 199020.22,212773.82 199023.14,212776.63 199026.13,212779.37 199029.06,212781.93"/>
    </edge>
    <edge id=":11071930636_1" function="internal">
        <lane id=":11071930636_1_0" index="0" disallow="pedestrian bicycle tram rail_urban rail rail_electric rail_fast ship" speed="22.22" length="15.86" shape="199017.50,212771.05 199019.94,212774.04 199022.17,212777.42 199024.24,212780.91 199026.26,212784.24"/>
    </edge>
    <edge id=":11071930713_0" function="internal">
        <lane id=":11071930713_0_0" index="0" disallow="pedestrian bicycle tram rail_urban rail rail_electric rail_fast ship" speed="22.22" length="8.19" shape="199225.63,212142.19 199223.85,212143.81 199222.88,212145.21 199221.90,212146.59 199220.10,212148.18"/>
        <lane id=":11071930713_0_1" index="1" disallow="pedestrian bicycle tram rail_urban rail rail_electric rail_fast ship" speed="22.22" length="8.19" shape="199225.63,212142.19 199223.56,212143.40 199221.95,212143.90 199220.33,212144.39 199218.24,212145.57"/>
    </edge>
    <edge id=":11096643158_0" function="internal">
        <lane id=":11096643158_0_0" index="0" allow="private emergency authority army vip passenger hov taxi bus coach delivery truck trailer motorcycle evehicle custom1 custom2" speed="25.00" length="0.30" shape="296491.45,121412.18 296491.15,121412.17"/>
        <lane id=":11096643158_0_1" index="1" allow="private emergency authority army vip passenger hov taxi bus coach delivery truck trailer motorcycle evehicle custom1 custom2" speed="25.00" length="0.30" shape="296491.55,121408.99 296491.25,121408.98"/>
    </edge>
    <edge id=":11096643159_0" function="internal">
        <lane id=":11096643159_0_0" index="0" allow="private emergency authority army vip passenger hov taxi bus coach delivery truck trailer motorcycle evehicle custom1 custom2" speed="25.00" length="0.30" shape="296491.78,121397.90 296492.08,121397.91"/>
        <lane id=":11096643159_0_1" index="1" allow="private emergency authority army vip passenger hov taxi bus coach delivery truck trailer motorcycle evehicle custom1 custom2" speed="25.00" length="0.30" shape="296491.68,121401.09 296491.98,121401.10"/>
    </edge>
    <edge id=":11117206736_0" function="internal">
        <lane id=":11117206736_0_0" index="0" allow="private emergency authority army vip passenger hov taxi bus coach delivery truck trailer motorcycle evehicle custom1 custom2" speed="25.00" length="8.21" shape="390205.55,3127.62 390204.05,3129.50 390203.32,3131.03 390202.59,3132.56 390201.09,3134.45"/>
        <lane id=":11117206736_0_1" index="1" allow="private emergency authority army vip passenger hov taxi bus coach delivery truck trailer motorcycle evehicle custom1 custom2" speed="25.00" length="8.21" shape="390203.27,3125.38 390201.77,3127.26 390201.04,3128.79 390200.31,3130.32 390198.81,3132.21"/>
        <lane id=":11117206736_0_2" index="2" allow="private emergency authority army vip passenger hov taxi bus coach delivery truck trailer motorcycle evehicle custom1 custom2" speed="25.00" length="8.21" shape="390200.98,3123.13 390199.48,3125.02 390198.75,3126.55 390198.02,3128.08 390196.52,3129.97"/>
        <lane id=":11117206736_0_3" index="3" allow="private emergency authority army vip passenger hov taxi bus coach delivery truck trailer motorcycle evehicle custom1 custom2" speed="25.00" length="8.21" shape="390198.70,3120.89 390197.20,3122.78 390196.47,3124.31 390195.74,3125.84 390194.24,3127.73"/>
        <lane id=":11117206736_0_4" index="4" allow="private emergency authority army vip passenger hov taxi bus coach delivery truck trailer motorcycle evehicle custom1 custom2" speed="25.00" length="8.21" shape="390196.41,3118.65 390194.91,3120.54 390194.18,3122.07 390193.45,3123.60 390191.95,3125.48"/>
        <lane id=":11117206736_0_5" index="5" allow="private emergency authority army vip passenger hov taxi bus coach delivery truck trailer motorcycle evehicle custom1 custom2" speed="25.00" length="8.21" shape="390194.13,3116.41 390192.63,3118.30 390191.90,3119.83 390191.17,3121.36 390189.67,3123.24"/>
    </edge>
    <edge id=":11117206737_0" function="internal">
        <lane id=":11117206737_0_0" index="0" disallow="tram rail_urban rail rail_electric rail_fast ship" speed="16.67" length="0.10" shape="390429.84,1340.34 390429.84,1340.34"/>
    </edge>
    <edge id=":11117206738_0" function="internal">
        <lane id=":11117206738_0_0" index="0" allow="private emergency authority army vip passenger hov taxi bus coach delivery truck trailer motorcycle evehicle custom1 custom2" speed="27.78" length="0.30" shape="388656.79,5736.66 388656.74,5736.95"/>
        <lane id=":11117206738_0_1" index="1" allow="private emergency authority army vip passenger hov taxi bus coach delivery truck trailer motorcycle evehicle custom1 custom2" speed="27.78" length="0.30" shape="388653.63,5736.14 388653.58,5736.44"/>
        <lane id=":11117206738_0_2" index="2" allow="private emergency authority army vip passenger hov taxi bus coach delivery truck trailer motorcycle evehicle custom1 custom2" speed="27.78" length="0.30" shape="388650.47,5735.62 388650.43,5735.92"/>
        <lane id=":11117206738_0_3" index="3" allow="private emergency authority army vip passenger hov taxi bus coach delivery truck trailer motorcycle evehicle custom1 custom2" speed="27.78" length="0.30" shape="388647.32,5735.10 388647.27,5735.40"/>
        <lane id=":11117206738_0_4" index="4" allow="private emergency authority army vip passenger hov taxi bus coach delivery truck trailer motorcycle evehicle custom1 custom2" speed="27.78" length="0.30" shape="388644.16,5734.59 388644.11,5734.88"/>
    </edge>
    <edge id=":11117206739_0" function="internal">
        <lane id=":11117206739_0_0" index="0" allow="private emergency authority army vip passenger hov taxi bus coach delivery truck trailer motorcycle evehicle custom1 custom2" speed="16.66" length="0.29" shape="388599.63,6084.99 388599.57,6085.35"/>
        <lane id=":11117206739_0_1" index="1" allow="private emergency authority army vip passenger hov taxi bus coach delivery truck trailer motorcycle evehicle custom1 custom2" speed="16.66" length="0.29" shape="388596.47,6084.47 388596.42,6084.80"/>
        <lane id=":11117206739_0_2" index="2" allow="private emergency authority army vip passenger hov taxi bus coach delivery truck trailer motorcycle evehicle custom1 custom2" speed="16.66" length="0.29" shape="388593.31,6083.95 388593.26,6084.24"/>
        <lane id=":11117206739_0_3" index="3" allow="private emergency authority army vip passenger hov taxi bus coach delivery truck trailer motorcycle evehicle custom1 custom2" speed="16.66" length="0.29" shape="388590.16,6083.44 388590.11,6083.69"/>
        <lane id=":11117206739_0_4" index="4" allow="private emergency authority army vip passenger hov taxi bus coach delivery truck trailer motorcycle evehicle custom1 custom2" speed="16.66" length="0.29" shape="388587.00,6082.92 388586.96,6083.14"/>
    </edge>
    <edge id=":11117206742_0" function="internal">
        <lane id=":11117206742_0_0" index="0" allow="private emergency authority army vip passenger hov taxi bus coach delivery truck trailer motorcycle evehicle custom1 custom2" speed="25.00" length="0.30" shape="387371.62,8410.08 387371.82,8409.86"/>
        <lane id=":11117206742_0_1" index="1" allow="private emergency authority army vip passenger hov taxi bus coach delivery truck trailer motorcycle evehicle custom1 custom2" speed="25.00" length="0.30" shape="387374.00,8412.22 387374.20,8412.00"/>
        <lane id=":11117206742_0_2" index="2" allow="private emergency authority army vip passenger hov taxi bus coach delivery truck trailer motorcycle evehicle custom1 custom2" speed="25.00" length="0.30" shape="387376.39,8414.35 387376.59,8414.13"/>
        <lane id=":11117206742_0_3" index="3" allow="private emergency authority army vip passenger hov taxi bus coach delivery truck trailer motorcycle evehicle custom1 custom2" speed="25.00" length="0.30" shape="387378.77,8416.49 387378.97,8416.27"/>
        <lane id=":11117206742_0_4" index="4" allow="private emergency authority army vip passenger hov taxi bus coach delivery truck trailer motorcycle evehicle custom1 custom2" speed="25.00" length="0.30" shape="387381.16,8418.62 387381.36,8418.40"/>
        <lane id=":11117206742_0_5" index="5" allow="private emergency authority army vip passenger hov taxi bus coach delivery truck trailer motorcycle evehicle custom1 custom2" speed="25.00" length="0.30" shape="387383.54,8420.76 387383.74,8420.54"/>
    </edge>
    <edge id=":11117206743_0" function="internal">
        <lane id=":11117206743_0_0" index="0" allow="private emergency authority army vip passenger hov taxi bus coach delivery truck trailer motorcycle evehicle custom1 custom2" speed="25.00" length="0.10" shape="387149.43,8670.32 387149.43,8670.32"/>
        <lane id=":11117206743_0_1" index="1" allow="private emergency authority army vip passenger hov taxi bus coach delivery truck trailer motorcycle evehicle custom1 custom2" speed="25.00" length="0.10" shape="387147.63,8667.68 387147.63,8667.68"/>
        <lane id=":11117206743_0_2" index="2" allow="private emergency authority army vip passenger hov taxi bus coach delivery truck trailer motorcycle evehicle custom1 custom2" speed="25.00" length="0.10" shape="387145.82,8665.03 387145.82,8665.03"/>
        <lane id=":11117206743_0_3" index="3" allow="private emergency authority army vip passenger hov taxi bus coach delivery truck trailer motorcycle evehicle custom1 custom2" speed="25.00" length="0.10" shape="387144.02,8662.39 387144.02,8662.39"/>
        <lane id=":11117206743_0_4" index="4" allow="private emergency authority army vip passenger hov taxi bus coach delivery truck trailer motorcycle evehicle custom1 custom2" speed="25.00" length="0.10" shape="387142.22,8659.75 387142.22,8659.75"/>
        <lane id=":11117206743_0_5" index="5" allow="private emergency authority army vip passenger hov taxi bus coach delivery truck trailer motorcycle evehicle custom1 custom2" speed="25.00" length="0.10" shape="387140.41,8657.10 387140.41,8657.10"/>