[General]
cmdenv-autoflush = true
network = Cars3km

##########################################################
#            Simulation parameters                       #
##########################################################

sim-time-limit = 10 min
#sim-time-limit = 6h

cmdenv-express-mode = true
#cmdenv-interactive=true

debug-on-errors = false
print-undisposed = false
**.server.ppp[*].**.scalar-recording = true
**.server.ppp[*].**.vector-recording = true
**.server.app[*].**.scalar-recording = true
**.server.app[*].**.vector-recording = true
**.car[*].app[*].**.scalar-recording = true
**.car[*].app[*].**.vector-recording = true
**.car[*].**.scalar-recording = true

**.scalar-recording = false
**.vector-recording = false
**.result-recording-modes = default,-histogram

*.playgroundSizeX = 20000km
*.playgroundSizeY = 20000km
*.playgroundSizeZ = 20000km

##########################################################
#            VeinsManager parameters                     #
##########################################################

*.veinsManager.host = "localhost"
*.veinsManager.port = 9999
*.veinsManager.moduleType = "simu5g.nodes.LteCar"
*.veinsManager.moduleName = "car"
*.veinsManager.launchConfig = xmldoc("sumo.launchd.xml")
*.veinsManager.updateInterval = 0.1s
*.veinsManager.autoShutdown = true

# IntegratedCanvasVisualizer (2D)
*.visualizer.*.obstacleLossVisualizer.displayIntersections = true
*.visualizer.*.obstacleLossVisualizer.displayFaceNormalVectors = true
*.visualizer.*.obstacleLossVisualizer.intersectionLineColor = "yellow"
*.visualizer.*.mediumVisualizer.signalPropagationAnimationSpeed = 500/3e8
*.visualizer.*.mediumVisualizer.signalTransmissionAnimationSpeed = 50000/3e8
*.visualizer.*.mediumVisualizer.displaySignals = true
*.visualizer.canvasVisualizer.mediumVisualizer.displaySignalDepartures = false
*.visualizer.canvasVisualizer.mediumVisualizer.displaySignalArrivals = false
*.visualizer.*.physicalLinkVisualizer.displayLinks = true
#*.visualizer.*.mobilityVisualizer.displayPositions = true
#*.visualizer.*.mobilityVisualizer.displayOrientations = true
#*.visualizer.*.mobilityVisualizer.displayVelocities = true
#*.visualizer.*.mobilityVisualizer.displayMovementTrails = true
#*.visualizer.*.mobilityVisualizer.moduleFilter = "**.antenna.mobility"

##########################################################
#                      Mobility                          #
##########################################################

*.car[*].mobility.typename = "VeinsInetMobility"

############### IPv4 configurator config #################
*.configurator.addStaticRoutes = false
*.configurator.config = xmldoc("./ipconfig-dump.xml")
#*.configurator.dumpConfig = "./ipconfig-dump.xml"

##########################################################
#                   ARP elimination                      #
##########################################################

**.hasGlobalArp = true
**.ipv4.arp.typename = "GlobalArp"
**.car[*].ipv4.ip.noArp = true

##########################################################
#              Application Configuration                 #
##########################################################

############# UDP Network Benchmark config ###############
#*.server.numApps = 1
#*.server.app[0].typename = "UdpSink"
#*.server.app[0].localPort = 5000
#
#*.car[*].numApps = 1
#*.car[*].app[0].typename = "UdpBasicApp"
#
#*.car[*].app[0].destAddresses = "server"
#*.car[*].app[0].destPort = 5000
#
#*.car[*].app[0].messageLength = 1200B
#*.car[*].app[0].sendInterval = 10ms
#
#*.car[*].app[0].startTime = 1s
#*.car[*].app[0].stopTime = 200s

############# Simu5G apps ###############
#*.car[*].numApps = 1
#*.car[*].app[0].typename = "BurstReceiver"
#*.car[*].app[0].localPort = 1000
#
#*.server.numApps = 1
#*.server.app[0].typename = "BurstSender"
#*.server.app[0].destAddress = "car[0]"
#*.server.app[0].destPort = 1000
#*.server.app[0].packetSize = 1000 bytes

############# TCP Network Benchmark config ###############

**.datarate = 100Tbps

*.car[*].numApps = 1
*.car[*].app[*].typename = "TcpBasicClientApp"
*.car[*].app[*].connectAddress = "server"
*.car[*].app[*].connectPort = 1000
*.car[*].app[*].startTime = uniform(1s, 30s)            # растянутый старт
*.car[*].app[*].requestLength = 100B                    # чуть больше, чем 1B
*.car[*].app[*].replyLength = 5MiB                      # вместо 100MiB
*.car[*].app[*].numRequestsPerSession = 10              # вместо 1000
*.car[*].app[*].thinkTime = uniform(0.1s, 0.5s)         # случайная пауза
*.car[*].app[*].idleInterval = exponential(5s)          # пауза между сессиями

*.server.numApps = 1
*.server.app[0].typename = "TcpGenericServerApp"
*.server.app[0].localPort = 1000


##########################################################
#            Spasi i sohrani parameters                  #
##########################################################

**.tcp.windowScalingSupport = true
**.tcp.advertisedWindow = 655350
**.tcp.mss = 1460

##########################################################
#              LTE specific parameters                   #
##########################################################

# Number of Resource Blocks
**.numBands = 100

# Transmission Power
**.ueTxPower = 26dBm
**.eNodeBTxPower = 46dBm

# Enable dynamic association of UEs (based on best SINR)
*.car[*].cellularNic.phy.dynamicCellAssociation = true
**.car[*].servingNodeId = 1     # ignored if dynamic association is enabled

# Enable handover
*.car[*].cellularNic.phy.enableHandover = true
*.eNodeB*.cellularNic.phy.enableHandover = true
*.eNodeB*.cellularNic.phy.handoverLatency = 50ms
*.eNodeB*.cellInfo.broadcastMessageInterval = 1s # eNodeB will sends broadcast triggers every second'
**.tolerateMaxDistViolation = true
**.scenario = "RURAL_MACROCELL"
**.nodebHeight = 30m

# X2 and SCTP configuration
*.eNodeB0.numX2Apps = 1
*.eNodeB222.numX2Apps = 1
*.eNodeB*.numX2Apps = 2
*.eNodeB*.x2App[*].server.localPort = 5000 + ancestorIndex(1) # Server ports (x2App[0]=5000, x2App[1]=5001, ...)
**.sctp.nagleEnabled = false         # if true, transmission of small packets will be delayed on the X2
**.sctp.enableHeartbeats = false

**.eNodeB0.macCellId = 1
**.eNodeB0.macNodeId = 1

# eNodeB0 X2Apps
*.eNodeB0.x2App[0].client.connectAddress = "eNodeB1%x2ppp0"
**.eNodeB1.macCellId = 2
**.eNodeB1.macNodeId = 2

# eNodeB1 X2Apps
*.eNodeB1.x2App[0].client.connectAddress = "eNodeB0%x2ppp0"
*.eNodeB1.x2App[1].client.connectAddress = "eNodeB2%x2ppp0"
**.eNodeB2.macCellId = 3
**.eNodeB2.macNodeId = 3

# eNodeB2 X2Apps
*.eNodeB2.x2App[0].client.connectAddress = "eNodeB1%x2ppp1"
*.eNodeB2.x2App[1].client.connectAddress = "eNodeB3%x2ppp1"
**.eNodeB3.macCellId = 4
**.eNodeB3.macNodeId = 4

# eNodeB3 X2Apps
*.eNodeB3.x2App[0].client.connectAddress = "eNodeB2%x2ppp1"
*.eNodeB3.x2App[1].client.connectAddress = "eNodeB4%x2ppp1"
**.eNodeB4.macCellId = 5
**.eNodeB4.macNodeId = 5

# eNodeB4 X2Apps
*.eNodeB4.x2App[0].client.connectAddress = "eNodeB3%x2ppp0"
*.eNodeB4.x2App[1].client.connectAddress = "eNodeB5%x2ppp0"
**.eNodeB5.macCellId = 6
**.eNodeB5.macNodeId = 6

# eNodeB5 X2Apps
*.eNodeB5.x2App[0].client.connectAddress = "eNodeB4%x2ppp0"
*.eNodeB5.x2App[1].client.connectAddress = "eNodeB6%x2ppp0"
**.eNodeB6.macCellId = 7
**.eNodeB6.macNodeId = 7

# eNodeB6 X2Apps
*.eNodeB6.x2App[0].client.connectAddress = "eNodeB5%x2ppp1"
*.eNodeB6.x2App[1].client.connectAddress = "eNodeB7%x2ppp1"
**.eNodeB7.macCellId = 8
**.eNodeB7.macNodeId = 8

# eNodeB7 X2Apps
*.eNodeB7.x2App[0].client.connectAddress = "eNodeB6%x2ppp1"
*.eNodeB7.x2App[1].client.connectAddress = "eNodeB8%x2ppp1"
**.eNodeB8.macCellId = 9
**.eNodeB8.macNodeId = 9

# eNodeB8 X2Apps
*.eNodeB8.x2App[0].client.connectAddress = "eNodeB7%x2ppp0"
*.eNodeB8.x2App[1].client.connectAddress = "eNodeB9%x2ppp0"
**.eNodeB9.macCellId = 10
**.eNodeB9.macNodeId = 10

# eNodeB9 X2Apps
*.eNodeB9.x2App[0].client.connectAddress = "eNodeB8%x2ppp0"
*.eNodeB9.x2App[1].client.connectAddress = "eNodeB10%x2ppp0"
**.eNodeB10.macCellId = 11
**.eNodeB10.macNodeId = 11

# eNodeB10 X2Apps
*.eNodeB10.x2App[0].client.connectAddress = "eNodeB9%x2ppp1"
*.eNodeB10.x2App[1].client.connectAddress = "eNodeB11%x2ppp1"
**.eNodeB11.macCellId = 12
**.eNodeB11.macNodeId = 12

# eNodeB11 X2Apps
*.eNodeB11.x2App[0].client.connectAddress = "eNodeB10%x2ppp1"
*.eNodeB11.x2App[1].client.connectAddress = "eNodeB12%x2ppp1"
**.eNodeB12.macCellId = 13
**.eNodeB12.macNodeId = 13

# eNodeB12 X2Apps
*.eNodeB12.x2App[0].client.connectAddress = "eNodeB11%x2ppp0"
*.eNodeB12.x2App[1].client.connectAddress = "eNodeB13%x2ppp0"
**.eNodeB13.macCellId = 14
**.eNodeB13.macNodeId = 14

# eNodeB13 X2Apps
*.eNodeB13.x2App[0].client.connectAddress = "eNodeB12%x2ppp0"
*.eNodeB13.x2App[1].client.connectAddress = "eNodeB14%x2ppp0"
**.eNodeB14.macCellId = 15
**.eNodeB14.macNodeId = 15

# eNodeB14 X2Apps
*.eNodeB14.x2App[0].client.connectAddress = "eNodeB13%x2ppp1"
*.eNodeB14.x2App[1].client.connectAddress = "eNodeB15%x2ppp1"
**.eNodeB15.macCellId = 16
**.eNodeB15.macNodeId = 16

# eNodeB15 X2Apps
*.eNodeB15.x2App[0].client.connectAddress = "eNodeB14%x2ppp1"
*.eNodeB15.x2App[1].client.connectAddress = "eNodeB16%x2ppp1"
**.eNodeB16.macCellId = 17
**.eNodeB16.macNodeId = 17

# eNodeB16 X2Apps
*.eNodeB16.x2App[0].client.connectAddress = "eNodeB15%x2ppp0"
*.eNodeB16.x2App[1].client.connectAddress = "eNodeB17%x2ppp0"
**.eNodeB17.macCellId = 18
**.eNodeB17.macNodeId = 18

# eNodeB17 X2Apps
*.eNodeB17.x2App[0].client.connectAddress = "eNodeB16%x2ppp0"
*.eNodeB17.x2App[1].client.connectAddress = "eNodeB18%x2ppp0"
**.eNodeB18.macCellId = 19
**.eNodeB18.macNodeId = 19

# eNodeB18 X2Apps
*.eNodeB18.x2App[0].client.connectAddress = "eNodeB17%x2ppp1"
*.eNodeB18.x2App[1].client.connectAddress = "eNodeB19%x2ppp1"
**.eNodeB19.macCellId = 20
**.eNodeB19.macNodeId = 20

# eNodeB19 X2Apps
*.eNodeB19.x2App[0].client.connectAddress = "eNodeB18%x2ppp1"
*.eNodeB19.x2App[1].client.connectAddress = "eNodeB20%x2ppp1"
**.eNodeB20.macCellId = 21
**.eNodeB20.macNodeId = 21

# eNodeB20 X2Apps
*.eNodeB20.x2App[0].client.connectAddress = "eNodeB19%x2ppp0"
*.eNodeB20.x2App[1].client.connectAddress = "eNodeB21%x2ppp0"
**.eNodeB21.macCellId = 22
**.eNodeB21.macNodeId = 22

# eNodeB21 X2Apps
*.eNodeB21.x2App[0].client.connectAddress = "eNodeB20%x2ppp0"
*.eNodeB21.x2App[1].client.connectAddress = "eNodeB22%x2ppp0"
**.eNodeB22.macCellId = 23
**.eNodeB22.macNodeId = 23

# eNodeB22 X2Apps
*.eNodeB22.x2App[0].client.connectAddress = "eNodeB21%x2ppp1"
*.eNodeB22.x2App[1].client.connectAddress = "eNodeB23%x2ppp1"
**.eNodeB23.macCellId = 24
**.eNodeB23.macNodeId = 24

# eNodeB23 X2Apps
*.eNodeB23.x2App[0].client.connectAddress = "eNodeB22%x2ppp1"
*.eNodeB23.x2App[1].client.connectAddress = "eNodeB24%x2ppp1"
**.eNodeB24.macCellId = 25
**.eNodeB24.macNodeId = 25

# eNodeB24 X2Apps
*.eNodeB24.x2App[0].client.connectAddress = "eNodeB23%x2ppp0"
*.eNodeB24.x2App[1].client.connectAddress = "eNodeB25%x2ppp0"
**.eNodeB25.macCellId = 26
**.eNodeB25.macNodeId = 26

# eNodeB25 X2Apps
*.eNodeB25.x2App[0].client.connectAddress = "eNodeB24%x2ppp0"
*.eNodeB25.x2App[1].client.connectAddress = "eNodeB26%x2ppp0"
**.eNodeB26.macCellId = 27
**.eNodeB26.macNodeId = 27

# eNodeB26 X2Apps
*.eNodeB26.x2App[0].client.connectAddress = "eNodeB25%x2ppp1"
*.eNodeB26.x2App[1].client.connectAddress = "eNodeB27%x2ppp1"
**.eNodeB27.macCellId = 28
**.eNodeB27.macNodeId = 28

# eNodeB27 X2Apps
*.eNodeB27.x2App[0].client.connectAddress = "eNodeB26%x2ppp1"
*.eNodeB27.x2App[1].client.connectAddress = "eNodeB28%x2ppp1"
**.eNodeB28.macCellId = 29
**.eNodeB28.macNodeId = 29

# eNodeB28 X2Apps
*.eNodeB28.x2App[0].client.connectAddress = "eNodeB27%x2ppp0"
*.eNodeB28.x2App[1].client.connectAddress = "eNodeB29%x2ppp0"
**.eNodeB29.macCellId = 30
**.eNodeB29.macNodeId = 30

# eNodeB29 X2Apps
*.eNodeB29.x2App[0].client.connectAddress = "eNodeB28%x2ppp0"
*.eNodeB29.x2App[1].client.connectAddress = "eNodeB30%x2ppp0"
**.eNodeB30.macCellId = 31
**.eNodeB30.macNodeId = 31

# eNodeB30 X2Apps
*.eNodeB30.x2App[0].client.connectAddress = "eNodeB29%x2ppp1"
*.eNodeB30.x2App[1].client.connectAddress = "eNodeB31%x2ppp1"
**.eNodeB31.macCellId = 32
**.eNodeB31.macNodeId = 32

# eNodeB31 X2Apps
*.eNodeB31.x2App[0].client.connectAddress = "eNodeB30%x2ppp1"
*.eNodeB31.x2App[1].client.connectAddress = "eNodeB32%x2ppp1"
**.eNodeB32.macCellId = 33
**.eNodeB32.macNodeId = 33

# eNodeB32 X2Apps
*.eNodeB32.x2App[0].client.connectAddress = "eNodeB31%x2ppp0"
*.eNodeB32.x2App[1].client.connectAddress = "eNodeB33%x2ppp0"
**.eNodeB33.macCellId = 34
**.eNodeB33.macNodeId = 34

# eNodeB33 X2Apps
*.eNodeB33.x2App[0].client.connectAddress = "eNodeB32%x2ppp0"
*.eNodeB33.x2App[1].client.connectAddress = "eNodeB34%x2ppp0"
**.eNodeB34.macCellId = 35
**.eNodeB34.macNodeId = 35

# eNodeB34 X2Apps
*.eNodeB34.x2App[0].client.connectAddress = "eNodeB33%x2ppp1"
*.eNodeB34.x2App[1].client.connectAddress = "eNodeB35%x2ppp1"
**.eNodeB35.macCellId = 36
**.eNodeB35.macNodeId = 36

# eNodeB35 X2Apps
*.eNodeB35.x2App[0].client.connectAddress = "eNodeB34%x2ppp1"
*.eNodeB35.x2App[1].client.connectAddress = "eNodeB36%x2ppp1"
**.eNodeB36.macCellId = 37
**.eNodeB36.macNodeId = 37

# eNodeB36 X2Apps
*.eNodeB36.x2App[0].client.connectAddress = "eNodeB35%x2ppp0"
*.eNodeB36.x2App[1].client.connectAddress = "eNodeB37%x2ppp0"
**.eNodeB37.macCellId = 38
**.eNodeB37.macNodeId = 38

# eNodeB37 X2Apps
*.eNodeB37.x2App[0].client.connectAddress = "eNodeB36%x2ppp0"
*.eNodeB37.x2App[1].client.connectAddress = "eNodeB38%x2ppp0"
**.eNodeB38.macCellId = 39
**.eNodeB38.macNodeId = 39

# eNodeB38 X2Apps
*.eNodeB38.x2App[0].client.connectAddress = "eNodeB37%x2ppp1"
*.eNodeB38.x2App[1].client.connectAddress = "eNodeB39%x2ppp1"
**.eNodeB39.macCellId = 40
**.eNodeB39.macNodeId = 40

# eNodeB39 X2Apps
*.eNodeB39.x2App[0].client.connectAddress = "eNodeB38%x2ppp1"
*.eNodeB39.x2App[1].client.connectAddress = "eNodeB40%x2ppp1"
**.eNodeB40.macCellId = 41
**.eNodeB40.macNodeId = 41

# eNodeB40 X2Apps
*.eNodeB40.x2App[0].client.connectAddress = "eNodeB39%x2ppp0"
*.eNodeB40.x2App[1].client.connectAddress = "eNodeB41%x2ppp0"
**.eNodeB41.macCellId = 42
**.eNodeB41.macNodeId = 42

# eNodeB41 X2Apps
*.eNodeB41.x2App[0].client.connectAddress = "eNodeB40%x2ppp0"
*.eNodeB41.x2App[1].client.connectAddress = "eNodeB42%x2ppp0"
**.eNodeB42.macCellId = 43
**.eNodeB42.macNodeId = 43

# eNodeB42 X2Apps
*.eNodeB42.x2App[0].client.connectAddress = "eNodeB41%x2ppp1"
*.eNodeB42.x2App[1].client.connectAddress = "eNodeB43%x2ppp1"
**.eNodeB43.macCellId = 44
**.eNodeB43.macNodeId = 44

# eNodeB43 X2Apps
*.eNodeB43.x2App[0].client.connectAddress = "eNodeB42%x2ppp1"
*.eNodeB43.x2App[1].client.connectAddress = "eNodeB44%x2ppp1"
**.eNodeB44.macCellId = 45
**.eNodeB44.macNodeId = 45

# eNodeB44 X2Apps
*.eNodeB44.x2App[0].client.connectAddress = "eNodeB43%x2ppp0"
*.eNodeB44.x2App[1].client.connectAddress = "eNodeB45%x2ppp0"
**.eNodeB45.macCellId = 46
**.eNodeB45.macNodeId = 46

# eNodeB45 X2Apps
*.eNodeB45.x2App[0].client.connectAddress = "eNodeB44%x2ppp0"
*.eNodeB45.x2App[1].client.connectAddress = "eNodeB46%x2ppp0"
**.eNodeB46.macCellId = 47
**.eNodeB46.macNodeId = 47

# eNodeB46 X2Apps
*.eNodeB46.x2App[0].client.connectAddress = "eNodeB45%x2ppp1"
*.eNodeB46.x2App[1].client.connectAddress = "eNodeB47%x2ppp1"
**.eNodeB47.macCellId = 48
**.eNodeB47.macNodeId = 48

# eNodeB47 X2Apps
*.eNodeB47.x2App[0].client.connectAddress = "eNodeB46%x2ppp1"
*.eNodeB47.x2App[1].client.connectAddress = "eNodeB48%x2ppp1"
**.eNodeB48.macCellId = 49
**.eNodeB48.macNodeId = 49

# eNodeB48 X2Apps
*.eNodeB48.x2App[0].client.connectAddress = "eNodeB47%x2ppp0"
*.eNodeB48.x2App[1].client.connectAddress = "eNodeB49%x2ppp0"
**.eNodeB49.macCellId = 50
**.eNodeB49.macNodeId = 50

# eNodeB49 X2Apps
*.eNodeB49.x2App[0].client.connectAddress = "eNodeB48%x2ppp0"
*.eNodeB49.x2App[1].client.connectAddress = "eNodeB50%x2ppp0"
**.eNodeB50.macCellId = 51
**.eNodeB50.macNodeId = 51

# eNodeB50 X2Apps
*.eNodeB50.x2App[0].client.connectAddress = "eNodeB49%x2ppp1"
*.eNodeB50.x2App[1].client.connectAddress = "eNodeB51%x2ppp1"
**.eNodeB51.macCellId = 52
**.eNodeB51.macNodeId = 52

# eNodeB51 X2Apps
*.eNodeB51.x2App[0].client.connectAddress = "eNodeB50%x2ppp1"
*.eNodeB51.x2App[1].client.connectAddress = "eNodeB52%x2ppp1"
**.eNodeB52.macCellId = 53
**.eNodeB52.macNodeId = 53

# eNodeB52 X2Apps
*.eNodeB52.x2App[0].client.connectAddress = "eNodeB51%x2ppp0"
*.eNodeB52.x2App[1].client.connectAddress = "eNodeB53%x2ppp0"
**.eNodeB53.macCellId = 54
**.eNodeB53.macNodeId = 54

# eNodeB53 X2Apps
*.eNodeB53.x2App[0].client.connectAddress = "eNodeB52%x2ppp0"
*.eNodeB53.x2App[1].client.connectAddress = "eNodeB54%x2ppp0"
**.eNodeB54.macCellId = 55
**.eNodeB54.macNodeId = 55

# eNodeB54 X2Apps
*.eNodeB54.x2App[0].client.connectAddress = "eNodeB53%x2ppp1"
*.eNodeB54.x2App[1].client.connectAddress = "eNodeB55%x2ppp1"
**.eNodeB55.macCellId = 56
**.eNodeB55.macNodeId = 56

# eNodeB55 X2Apps
*.eNodeB55.x2App[0].client.connectAddress = "eNodeB54%x2ppp1"
*.eNodeB55.x2App[1].client.connectAddress = "eNodeB56%x2ppp1"
**.eNodeB56.macCellId = 57
**.eNodeB56.macNodeId = 57

# eNodeB56 X2Apps
*.eNodeB56.x2App[0].client.connectAddress = "eNodeB55%x2ppp0"
*.eNodeB56.x2App[1].client.connectAddress = "eNodeB57%x2ppp0"
**.eNodeB57.macCellId = 58
**.eNodeB57.macNodeId = 58

# eNodeB57 X2Apps
*.eNodeB57.x2App[0].client.connectAddress = "eNodeB56%x2ppp0"
*.eNodeB57.x2App[1].client.connectAddress = "eNodeB58%x2ppp0"
**.eNodeB58.macCellId = 59
**.eNodeB58.macNodeId = 59

# eNodeB58 X2Apps
*.eNodeB58.x2App[0].client.connectAddress = "eNodeB57%x2ppp1"
*.eNodeB58.x2App[1].client.connectAddress = "eNodeB59%x2ppp1"
**.eNodeB59.macCellId = 60
**.eNodeB59.macNodeId = 60

# eNodeB59 X2Apps
*.eNodeB59.x2App[0].client.connectAddress = "eNodeB58%x2ppp1"
*.eNodeB59.x2App[1].client.connectAddress = "eNodeB60%x2ppp1"
**.eNodeB60.macCellId = 61
**.eNodeB60.macNodeId = 61

# eNodeB60 X2Apps
*.eNodeB60.x2App[0].client.connectAddress = "eNodeB59%x2ppp0"
*.eNodeB60.x2App[1].client.connectAddress = "eNodeB61%x2ppp0"
**.eNodeB61.macCellId = 62
**.eNodeB61.macNodeId = 62

# eNodeB61 X2Apps
*.eNodeB61.x2App[0].client.connectAddress = "eNodeB60%x2ppp0"
*.eNodeB61.x2App[1].client.connectAddress = "eNodeB62%x2ppp0"
**.eNodeB62.macCellId = 63
**.eNodeB62.macNodeId = 63

# eNodeB62 X2Apps
*.eNodeB62.x2App[0].client.connectAddress = "eNodeB61%x2ppp1"
*.eNodeB62.x2App[1].client.connectAddress = "eNodeB63%x2ppp1"
**.eNodeB63.macCellId = 64
**.eNodeB63.macNodeId = 64

# eNodeB63 X2Apps
*.eNodeB63.x2App[0].client.connectAddress = "eNodeB62%x2ppp1"
*.eNodeB63.x2App[1].client.connectAddress = "eNodeB64%x2ppp1"
**.eNodeB64.macCellId = 65
**.eNodeB64.macNodeId = 65

# eNodeB64 X2Apps
*.eNodeB64.x2App[0].client.connectAddress = "eNodeB63%x2ppp0"
*.eNodeB64.x2App[1].client.connectAddress = "eNodeB65%x2ppp0"
**.eNodeB65.macCellId = 66
**.eNodeB65.macNodeId = 66

# eNodeB65 X2Apps
*.eNodeB65.x2App[0].client.connectAddress = "eNodeB64%x2ppp0"
*.eNodeB65.x2App[1].client.connectAddress = "eNodeB66%x2ppp0"
**.eNodeB66.macCellId = 67
**.eNodeB66.macNodeId = 67

# eNodeB66 X2Apps
*.eNodeB66.x2App[0].client.connectAddress = "eNodeB65%x2ppp1"
*.eNodeB66.x2App[1].client.connectAddress = "eNodeB67%x2ppp1"
**.eNodeB67.macCellId = 68
**.eNodeB67.macNodeId = 68

# eNodeB67 X2Apps
*.eNodeB67.x2App[0].client.connectAddress = "eNodeB66%x2ppp1"
*.eNodeB67.x2App[1].client.connectAddress = "eNodeB68%x2ppp1"
**.eNodeB68.macCellId = 69
**.eNodeB68.macNodeId = 69

# eNodeB68 X2Apps
*.eNodeB68.x2App[0].client.connectAddress = "eNodeB67%x2ppp0"
*.eNodeB68.x2App[1].client.connectAddress = "eNodeB69%x2ppp0"
**.eNodeB69.macCellId = 70
**.eNodeB69.macNodeId = 70

# eNodeB69 X2Apps
*.eNodeB69.x2App[0].client.connectAddress = "eNodeB68%x2ppp0"
*.eNodeB69.x2App[1].client.connectAddress = "eNodeB70%x2ppp0"
**.eNodeB70.macCellId = 71
**.eNodeB70.macNodeId = 71

# eNodeB70 X2Apps
*.eNodeB70.x2App[0].client.connectAddress = "eNodeB69%x2ppp1"
*.eNodeB70.x2App[1].client.connectAddress = "eNodeB71%x2ppp1"
**.eNodeB71.macCellId = 72
**.eNodeB71.macNodeId = 72

# eNodeB71 X2Apps
*.eNodeB71.x2App[0].client.connectAddress = "eNodeB70%x2ppp1"
*.eNodeB71.x2App[1].client.connectAddress = "eNodeB72%x2ppp1"
**.eNodeB72.macCellId = 73
**.eNodeB72.macNodeId = 73

# eNodeB72 X2Apps
*.eNodeB72.x2App[0].client.connectAddress = "eNodeB71%x2ppp0"
*.eNodeB72.x2App[1].client.connectAddress = "eNodeB73%x2ppp0"
**.eNodeB73.macCellId = 74
**.eNodeB73.macNodeId = 74

# eNodeB73 X2Apps
*.eNodeB73.x2App[0].client.connectAddress = "eNodeB72%x2ppp0"
*.eNodeB73.x2App[1].client.connectAddress = "eNodeB74%x2ppp0"
**.eNodeB74.macCellId = 75
**.eNodeB74.macNodeId = 75

# eNodeB74 X2Apps
*.eNodeB74.x2App[0].client.connectAddress = "eNodeB73%x2ppp1"
*.eNodeB74.x2App[1].client.connectAddress = "eNodeB75%x2ppp1"
**.eNodeB75.macCellId = 76
**.eNodeB75.macNodeId = 76

# eNodeB75 X2Apps
*.eNodeB75.x2App[0].client.connectAddress = "eNodeB74%x2ppp1"
*.eNodeB75.x2App[1].client.connectAddress = "eNodeB76%x2ppp1"
**.eNodeB76.macCellId = 77
**.eNodeB76.macNodeId = 77

# eNodeB76 X2Apps
*.eNodeB76.x2App[0].client.connectAddress = "eNodeB75%x2ppp0"
*.eNodeB76.x2App[1].client.connectAddress = "eNodeB77%x2ppp0"
**.eNodeB77.macCellId = 78
**.eNodeB77.macNodeId = 78

# eNodeB77 X2Apps
*.eNodeB77.x2App[0].client.connectAddress = "eNodeB76%x2ppp0"
*.eNodeB77.x2App[1].client.connectAddress = "eNodeB78%x2ppp0"
**.eNodeB78.macCellId = 79
**.eNodeB78.macNodeId = 79

# eNodeB78 X2Apps
*.eNodeB78.x2App[0].client.connectAddress = "eNodeB77%x2ppp1"
*.eNodeB78.x2App[1].client.connectAddress = "eNodeB79%x2ppp1"
**.eNodeB79.macCellId = 80
**.eNodeB79.macNodeId = 80

# eNodeB79 X2Apps
*.eNodeB79.x2App[0].client.connectAddress = "eNodeB78%x2ppp1"
*.eNodeB79.x2App[1].client.connectAddress = "eNodeB80%x2ppp1"
**.eNodeB80.macCellId = 81
**.eNodeB80.macNodeId = 81

# eNodeB80 X2Apps
*.eNodeB80.x2App[0].client.connectAddress = "eNodeB79%x2ppp0"
*.eNodeB80.x2App[1].client.connectAddress = "eNodeB81%x2ppp0"
**.eNodeB81.macCellId = 82
**.eNodeB81.macNodeId = 82

# eNodeB81 X2Apps
*.eNodeB81.x2App[0].client.connectAddress = "eNodeB80%x2ppp0"
*.eNodeB81.x2App[1].client.connectAddress = "eNodeB82%x2ppp0"
**.eNodeB82.macCellId = 83
**.eNodeB82.macNodeId = 83

# eNodeB82 X2Apps
*.eNodeB82.x2App[0].client.connectAddress = "eNodeB81%x2ppp1"
*.eNodeB82.x2App[1].client.connectAddress = "eNodeB83%x2ppp1"
**.eNodeB83.macCellId = 84
**.eNodeB83.macNodeId = 84

# eNodeB83 X2Apps
*.eNodeB83.x2App[0].client.connectAddress = "eNodeB82%x2ppp1"
*.eNodeB83.x2App[1].client.connectAddress = "eNodeB84%x2ppp1"
**.eNodeB84.macCellId = 85
**.eNodeB84.macNodeId = 85

# eNodeB84 X2Apps
*.eNodeB84.x2App[0].client.connectAddress = "eNodeB83%x2ppp0"
*.eNodeB84.x2App[1].client.connectAddress = "eNodeB85%x2ppp0"
**.eNodeB85.macCellId = 86
**.eNodeB85.macNodeId = 86

# eNodeB85 X2Apps
*.eNodeB85.x2App[0].client.connectAddress = "eNodeB84%x2ppp0"
*.eNodeB85.x2App[1].client.connectAddress = "eNodeB86%x2ppp0"
**.eNodeB86.macCellId = 87
**.eNodeB86.macNodeId = 87

# eNodeB86 X2Apps
*.eNodeB86.x2App[0].client.connectAddress = "eNodeB85%x2ppp1"
*.eNodeB86.x2App[1].client.connectAddress = "eNodeB87%x2ppp1"
**.eNodeB87.macCellId = 88
**.eNodeB87.macNodeId = 88

# eNodeB87 X2Apps
*.eNodeB87.x2App[0].client.connectAddress = "eNodeB86%x2ppp1"
*.eNodeB87.x2App[1].client.connectAddress = "eNodeB88%x2ppp1"
**.eNodeB88.macCellId = 89
**.eNodeB88.macNodeId = 89

# eNodeB88 X2Apps
*.eNodeB88.x2App[0].client.connectAddress = "eNodeB87%x2ppp0"
*.eNodeB88.x2App[1].client.connectAddress = "eNodeB89%x2ppp0"
**.eNodeB89.macCellId = 90
**.eNodeB89.macNodeId = 90

# eNodeB89 X2Apps
*.eNodeB89.x2App[0].client.connectAddress = "eNodeB88%x2ppp0"
*.eNodeB89.x2App[1].client.connectAddress = "eNodeB90%x2ppp0"
**.eNodeB90.macCellId = 91
**.eNodeB90.macNodeId = 91

# eNodeB90 X2Apps
*.eNodeB90.x2App[0].client.connectAddress = "eNodeB89%x2ppp1"
*.eNodeB90.x2App[1].client.connectAddress = "eNodeB91%x2ppp1"
**.eNodeB91.macCellId = 92
**.eNodeB91.macNodeId = 92

# eNodeB91 X2Apps
*.eNodeB91.x2App[0].client.connectAddress = "eNodeB90%x2ppp1"
*.eNodeB91.x2App[1].client.connectAddress = "eNodeB92%x2ppp1"
**.eNodeB92.macCellId = 93
**.eNodeB92.macNodeId = 93

# eNodeB92 X2Apps
*.eNodeB92.x2App[0].client.connectAddress = "eNodeB91%x2ppp0"
*.eNodeB92.x2App[1].client.connectAddress = "eNodeB93%x2ppp0"
**.eNodeB93.macCellId = 94
**.eNodeB93.macNodeId = 94

# eNodeB93 X2Apps
*.eNodeB93.x2App[0].client.connectAddress = "eNodeB92%x2ppp0"
*.eNodeB93.x2App[1].client.connectAddress = "eNodeB94%x2ppp0"
**.eNodeB94.macCellId = 95
**.eNodeB94.macNodeId = 95

# eNodeB94 X2Apps
*.eNodeB94.x2App[0].client.connectAddress = "eNodeB93%x2ppp1"
*.eNodeB94.x2App[1].client.connectAddress = "eNodeB95%x2ppp1"
**.eNodeB95.macCellId = 96
**.eNodeB95.macNodeId = 96

# eNodeB95 X2Apps
*.eNodeB95.x2App[0].client.connectAddress = "eNodeB94%x2ppp1"
*.eNodeB95.x2App[1].client.connectAddress = "eNodeB96%x2ppp1"
**.eNodeB96.macCellId = 97
**.eNodeB96.macNodeId = 97

# eNodeB96 X2Apps
*.eNodeB96.x2App[0].client.connectAddress = "eNodeB95%x2ppp0"
*.eNodeB96.x2App[1].client.connectAddress = "eNodeB97%x2ppp0"
**.eNodeB97.macCellId = 98
**.eNodeB97.macNodeId = 98

# eNodeB97 X2Apps
*.eNodeB97.x2App[0].client.connectAddress = "eNodeB96%x2ppp0"
*.eNodeB97.x2App[1].client.connectAddress = "eNodeB98%x2ppp0"
**.eNodeB98.macCellId = 99
**.eNodeB98.macNodeId = 99

# eNodeB98 X2Apps
*.eNodeB98.x2App[0].client.connectAddress = "eNodeB97%x2ppp1"
*.eNodeB98.x2App[1].client.connectAddress = "eNodeB99%x2ppp1"
**.eNodeB99.macCellId = 100
**.eNodeB99.macNodeId = 100

# eNodeB99 X2Apps
*.eNodeB99.x2App[0].client.connectAddress = "eNodeB98%x2ppp1"
*.eNodeB99.x2App[1].client.connectAddress = "eNodeB100%x2ppp1"
**.eNodeB100.macCellId = 101
**.eNodeB100.macNodeId = 101

# eNodeB100 X2Apps
*.eNodeB100.x2App[0].client.connectAddress = "eNodeB99%x2ppp0"
*.eNodeB100.x2App[1].client.connectAddress = "eNodeB101%x2ppp0"
**.eNodeB101.macCellId = 102
**.eNodeB101.macNodeId = 102

# eNodeB101 X2Apps
*.eNodeB101.x2App[0].client.connectAddress = "eNodeB100%x2ppp0"
*.eNodeB101.x2App[1].client.connectAddress = "eNodeB102%x2ppp0"
**.eNodeB102.macCellId = 103
**.eNodeB102.macNodeId = 103

# eNodeB102 X2Apps
*.eNodeB102.x2App[0].client.connectAddress = "eNodeB101%x2ppp1"
*.eNodeB102.x2App[1].client.connectAddress = "eNodeB103%x2ppp1"
**.eNodeB103.macCellId = 104
**.eNodeB103.macNodeId = 104

# eNodeB103 X2Apps
*.eNodeB103.x2App[0].client.connectAddress = "eNodeB102%x2ppp1"
*.eNodeB103.x2App[1].client.connectAddress = "eNodeB104%x2ppp1"
**.eNodeB104.macCellId = 105
**.eNodeB104.macNodeId = 105

# eNodeB104 X2Apps
*.eNodeB104.x2App[0].client.connectAddress = "eNodeB103%x2ppp0"
*.eNodeB104.x2App[1].client.connectAddress = "eNodeB105%x2ppp0"
**.eNodeB105.macCellId = 106
**.eNodeB105.macNodeId = 106

# eNodeB105 X2Apps
*.eNodeB105.x2App[0].client.connectAddress = "eNodeB104%x2ppp0"
*.eNodeB105.x2App[1].client.connectAddress = "eNodeB106%x2ppp0"
**.eNodeB106.macCellId = 107
**.eNodeB106.macNodeId = 107

# eNodeB106 X2Apps
*.eNodeB106.x2App[0].client.connectAddress = "eNodeB105%x2ppp1"
*.eNodeB106.x2App[1].client.connectAddress = "eNodeB107%x2ppp1"
**.eNodeB107.macCellId = 108
**.eNodeB107.macNodeId = 108

# eNodeB107 X2Apps
*.eNodeB107.x2App[0].client.connectAddress = "eNodeB106%x2ppp1"
*.eNodeB107.x2App[1].client.connectAddress = "eNodeB108%x2ppp1"
**.eNodeB108.macCellId = 109
**.eNodeB108.macNodeId = 109

# eNodeB108 X2Apps
*.eNodeB108.x2App[0].client.connectAddress = "eNodeB107%x2ppp0"
*.eNodeB108.x2App[1].client.connectAddress = "eNodeB109%x2ppp0"
**.eNodeB109.macCellId = 110
**.eNodeB109.macNodeId = 110

# eNodeB109 X2Apps
*.eNodeB109.x2App[0].client.connectAddress = "eNodeB108%x2ppp0"
*.eNodeB109.x2App[1].client.connectAddress = "eNodeB110%x2ppp0"
**.eNodeB110.macCellId = 111
**.eNodeB110.macNodeId = 111

# eNodeB110 X2Apps
*.eNodeB110.x2App[0].client.connectAddress = "eNodeB109%x2ppp1"
*.eNodeB110.x2App[1].client.connectAddress = "eNodeB111%x2ppp1"
**.eNodeB111.macCellId = 112
**.eNodeB111.macNodeId = 112

# eNodeB111 X2Apps
*.eNodeB111.x2App[0].client.connectAddress = "eNodeB110%x2ppp1"
*.eNodeB111.x2App[1].client.connectAddress = "eNodeB112%x2ppp1"
**.eNodeB112.macCellId = 113
**.eNodeB112.macNodeId = 113

# eNodeB112 X2Apps
*.eNodeB112.x2App[0].client.connectAddress = "eNodeB111%x2ppp0"
*.eNodeB112.x2App[1].client.connectAddress = "eNodeB113%x2ppp0"
**.eNodeB113.macCellId = 114
**.eNodeB113.macNodeId = 114

# eNodeB113 X2Apps
*.eNodeB113.x2App[0].client.connectAddress = "eNodeB112%x2ppp0"
*.eNodeB113.x2App[1].client.connectAddress = "eNodeB114%x2ppp0"
**.eNodeB114.macCellId = 115
**.eNodeB114.macNodeId = 115

# eNodeB114 X2Apps
*.eNodeB114.x2App[0].client.connectAddress = "eNodeB113%x2ppp1"
*.eNodeB114.x2App[1].client.connectAddress = "eNodeB115%x2ppp1"
**.eNodeB115.macCellId = 116
**.eNodeB115.macNodeId = 116

# eNodeB115 X2Apps
*.eNodeB115.x2App[0].client.connectAddress = "eNodeB114%x2ppp1"
*.eNodeB115.x2App[1].client.connectAddress = "eNodeB116%x2ppp1"
**.eNodeB116.macCellId = 117
**.eNodeB116.macNodeId = 117

# eNodeB116 X2Apps
*.eNodeB116.x2App[0].client.connectAddress = "eNodeB115%x2ppp0"
*.eNodeB116.x2App[1].client.connectAddress = "eNodeB117%x2ppp0"
**.eNodeB117.macCellId = 118
**.eNodeB117.macNodeId = 118

# eNodeB117 X2Apps
*.eNodeB117.x2App[0].client.connectAddress = "eNodeB116%x2ppp0"
*.eNodeB117.x2App[1].client.connectAddress = "eNodeB118%x2ppp0"
**.eNodeB118.macCellId = 119
**.eNodeB118.macNodeId = 119

# eNodeB118 X2Apps
*.eNodeB118.x2App[0].client.connectAddress = "eNodeB117%x2ppp1"
*.eNodeB118.x2App[1].client.connectAddress = "eNodeB119%x2ppp1"
**.eNodeB119.macCellId = 120
**.eNodeB119.macNodeId = 120

# eNodeB119 X2Apps
*.eNodeB119.x2App[0].client.connectAddress = "eNodeB118%x2ppp1"
*.eNodeB119.x2App[1].client.connectAddress = "eNodeB120%x2ppp1"
**.eNodeB120.macCellId = 121
**.eNodeB120.macNodeId = 121

# eNodeB120 X2Apps
*.eNodeB120.x2App[0].client.connectAddress = "eNodeB119%x2ppp0"