<?xml version="1.0" encoding="UTF-8"?>

<!-- generated on 2026-06-02 14:39:30 by Eclipse SUMO netedit Version 1.18.0
-->

<routes xmlns:xsi="http://www.w3.org/2001/XMLSchema-instance" xsi:noNamespaceSchemaLocation="http://sumo.dlr.de/xsd/routes_file.xsd">
    <!-- Vehicles, persons and containers (sorted by depart) -->
    <flow id="f_0" begin="0.00" from="-972567495#0" to="109151045" end="3600.00" vehsPerHour="1800.00"/>
    <flow id="f_1" begin="0.00" from="124777810" to="1185446564" end="3600.00" vehsPerHour="1800.00"/>
</routes>
