<?xml version="1.0" encoding="UTF-8"?>

<!-- generated on 2026-06-02 14:34:41 by Eclipse SUMO netconvert Version 1.18.0
<configuration xmlns:xsi="http://www.w3.org/2001/XMLSchema-instance" xsi:noNamespaceSchemaLocation="http://sumo.dlr.de/xsd/netconvertConfiguration.xsd">

    <input>
        <osm-files value="sortavala.osm"/>
    </input>

    <output>
        <output-file value="sortavala.net.xml"/>
    </output>

    <projection>
        <proj.utm value="true"/>
    </projection>

</configuration>
-->

<net version="1.16" junctionCornerDetail="5" limitTurnSpeed="5.50" xmlns:xsi="http://www.w3.org/2001/XMLSchema-instance" xsi:noNamespaceSchemaLocation="http://sumo.dlr.de/xsd/net_file.xsd">

    <location netOffset="-325809.85,-6664549.01" convBoundary="0.00,0.00,206969.14,187824.77" origBoundary="29.751779,60.091809,33.619351,61.785943" projParameter="+proj=utm +zone=36 +ellps=WGS84 +datum=WGS84 +units=m +no_defs"/>

    <type id="highway.secondary" priority="11" numLanes="1" speed="27.78" disallow="tram rail_urban rail rail_electric rail_fast ship" oneway="0"/>
    <type id="highway.tertiary" priority="10" numLanes="1" speed="22.22" disallow="tram rail_urban rail rail_electric rail_fast ship" oneway="0"/>
    <type id="highway.trunk" priority="13" numLanes="2" speed="27.78" disallow="pedestrian bicycle tram rail_urban rail rail_electric rail_fast ship" oneway="0"/>
    <type id="highway.trunk_link" priority="8" numLanes="1" speed="22.22" disallow="pedestrian bicycle tram rail_urban rail rail_electric rail_fast ship" oneway="0"/>

    <edge id=":1014430144_0" function="internal">
        <lane id=":1014430144_0_0" index="0" disallow="pedestrian bicycle tram rail_urban rail rail_electric rail_fast ship" speed="13.89" length="8.39" shape="68644.48,184835.41 68641.98,184835.48 68640.28,184836.29 68638.58,184837.12 68636.07,184837.20"/>
        <lane id=":1014430144_0_1" index="1" disallow="pedestrian bicycle tram rail_urban rail rail_electric rail_fast ship" speed="13.89" length="8.39" shape="68644.48,184835.41 68636.61,184834.04"/>
    </edge>
    <edge id=":1014430144_2" function="internal">
        <lane id=":1014430144_2_0" index="0" disallow="pedestrian bicycle tram rail_urban rail rail_electric rail_fast ship" speed="13.89" length="8.82" shape="68637.69,184827.73 68640.04,184828.64 68641.37,184829.99 68642.70,184831.34 68645.04,184832.26"/>
    </edge>
    <edge id=":10248049879_0" function="internal">
        <lane id=":10248049879_0_0" index="0" disallow="pedestrian bicycle tram rail_urban rail rail_electric rail_fast ship" speed="16.67" length="0.30" shape="52469.77,179073.99 52469.55,179073.77"/>
    </edge>
    <edge id=":10248049879_1" function="internal">
        <lane id=":10248049879_1_0" index="0" disallow="pedestrian bicycle tram rail_urban rail rail_electric rail_fast ship" speed="16.67" length="0.30" shape="52471.83,179071.52 52472.04,179071.73"/>
    </edge>
    <edge id=":10248049880_0" function="internal">
        <lane id=":10248049880_0_0" index="0" disallow="pedestrian bicycle tram rail_urban rail rail_electric rail_fast ship" speed="16.67" length="2.29" shape="52471.56,179075.79 52473.16,179077.43"/>
    </edge>
    <edge id=":10248049880_1" function="internal">
        <lane id=":10248049880_1_0" index="0" disallow="pedestrian bicycle tram rail_urban rail rail_electric rail_fast ship" speed="16.67" length="2.29" shape="52475.45,179075.19 52473.85,179073.55"/>
    </edge>
    <edge id=":10548664723_0" function="internal">
        <lane id=":10548664723_0_0" index="0" disallow="pedestrian bicycle tram rail_urban rail rail_electric rail_fast ship" speed="16.67" length="0.30" shape="22213.72,98152.12 22213.62,98152.41"/>
    </edge>
    <edge id=":10548664723_1" function="internal">
        <lane id=":10548664723_1_0" index="0" disallow="pedestrian bicycle tram rail_urban rail rail_electric rail_fast ship" speed="16.67" length="0.30" shape="22210.58,98151.40 22210.68,98151.11"/>
    </edge>
    <edge id=":10548664724_0" function="internal">
        <lane id=":10548664724_0_0" index="0" disallow="pedestrian bicycle tram rail_urban rail rail_electric rail_fast ship" speed="16.67" length="0.29" shape="22111.36,98567.48 22111.26,98567.76"/>
    </edge>
    <edge id=":10548664724_1" function="internal">
        <lane id=":10548664724_1_0" index="0" disallow="pedestrian bicycle tram rail_urban rail rail_electric rail_fast ship" speed="16.67" length="0.18" shape="22108.28,98566.58 22108.35,98566.41"/>
    </edge>
    <edge id=":1084603023_0" function="internal">
        <lane id=":1084603023_0_0" index="0" disallow="pedestrian bicycle tram rail_urban rail rail_electric rail_fast ship" speed="25.00" length="0.10" shape="27933.39,66.27 27933.33,66.22"/>
        <lane id=":1084603023_0_1" index="1" disallow="pedestrian bicycle tram rail_urban rail rail_electric rail_fast ship" speed="25.00" length="0.10" shape="27931.18,68.58 27931.24,68.63"/>
    </edge>
    <edge id=":1084603027_0" function="internal">
        <lane id=":1084603027_0_0" index="0" disallow="pedestrian bicycle tram rail_urban rail rail_electric rail_fast ship" speed="25.00" length="8.05" shape="27922.52,81.33 27920.58,79.89 27919.04,79.19 27917.52,78.46 27915.67,76.93"/>
        <lane id=":1084603027_0_1" index="1" disallow="pedestrian bicycle tram rail_urban rail rail_electric rail_fast ship" speed="25.00" length="8.05" shape="27924.68,78.97 27922.78,77.56 27921.26,76.89 27919.77,76.18 27917.96,74.69"/>
        <lane id=":1084603027_0_2" index="2" disallow="pedestrian bicycle tram rail_urban rail rail_electric rail_fast ship" speed="25.00" length="8.05" shape="27924.68,78.97 27923.15,77.22 27922.40,75.77 27921.69,74.28 27920.24,72.45"/>
    </edge>
    <edge id=":1084603068_0" function="internal">
        <lane id=":1084603068_0_0" index="0" disallow="pedestrian bicycle tram rail_urban rail rail_electric rail_fast ship" speed="25.00" length="0.29" shape="28666.67,747.79 28666.74,747.90 28666.79,747.97 28666.83,748.05 28666.89,748.16"/>
        <lane id=":1084603068_0_1" index="1" disallow="pedestrian bicycle tram rail_urban rail rail_electric rail_fast ship" speed="25.00" length="0.29" shape="28663.99,749.54 28664.01,749.57 28664.03,749.60 28664.04,749.62 28664.06,749.66"/>
    </edge>
    <edge id=":10873445264_0" function="internal">
        <lane id=":10873445264_0_0" index="0" disallow="pedestrian bicycle tram rail_urban rail rail_electric rail_fast ship" speed="27.78" length="0.10" shape="201617.64,168479.87 201617.64,168479.87"/>
    </edge>
    <edge id=":10873445264_1" function="internal">
        <lane id=":10873445264_1_0" index="0" disallow="pedestrian bicycle tram rail_urban rail rail_electric rail_fast ship" speed="27.78" length="0.10" shape="201619.10,168477.02 201619.10,168477.02"/>
    </edge>
    <edge id=":10873445265_0" function="internal">
        <lane id=":10873445265_0_0" index="0" disallow="pedestrian bicycle tram rail_urban rail rail_electric rail_fast ship" speed="27.78" length="0.10" shape="201597.47,168469.53 201597.47,168469.53"/>
    </edge>
    <edge id=":10873445265_1" function="internal">
        <lane id=":10873445265_1_0" index="0" disallow="pedestrian bicycle tram rail_urban rail rail_electric rail_fast ship" speed="27.78" length="0.10" shape="201598.93,168466.68 201598.93,168466.68"/>
    </edge>
    <edge id=":1088232875_0" function="internal">
        <lane id=":1088232875_0_0" index="0" disallow="pedestrian bicycle tram rail_urban rail rail_electric rail_fast ship" speed="13.89" length="0.37" shape="25128.64,159599.53 25128.55,159599.47 25128.49,159599.43 25128.42,159599.40 25128.32,159599.36"/>
    </edge>
    <edge id=":1088232875_1" function="internal">
        <lane id=":1088232875_1_0" index="0" disallow="pedestrian bicycle tram rail_urban rail rail_electric rail_fast ship" speed="13.89" length="1.10" shape="25129.52,159596.39 25129.83,159596.52 25130.03,159596.61 25130.22,159596.73 25130.48,159596.92"/>
    </edge>
    <edge id=":1089023590_0" function="internal">
        <lane id=":1089023590_0_0" index="0" disallow="pedestrian bicycle tram rail_urban rail rail_electric rail_fast ship" speed="25.00" length="7.98" shape="144351.51,167202.37 144346.27,167208.37"/>
        <lane id=":1089023590_0_1" index="1" disallow="pedestrian bicycle tram rail_urban rail rail_electric rail_fast ship" speed="25.00" length="7.98" shape="144349.11,167200.26 144343.85,167206.28"/>
    </edge>
    <edge id=":1089023590_2" function="internal">
        <lane id=":1089023590_2_0" index="0" disallow="pedestrian bicycle tram rail_urban rail rail_electric rail_fast ship" speed="25.00" length="8.42" shape="144341.43,167204.18 144342.67,167201.99 144342.86,167200.10 144343.05,167198.22 144344.30,167196.03"/>
        <lane id=":1089023590_2_1" index="1" disallow="pedestrian bicycle tram rail_urban rail rail_electric rail_fast ship" speed="25.00" length="8.42" shape="144341.43,167204.18 144346.70,167198.15"/>
    </edge>
    <edge id=":1097247479_0" function="internal">
        <lane id=":1097247479_0_0" index="0" disallow="pedestrian bicycle tram rail_urban rail rail_electric rail_fast ship" speed="16.67" length="0.16" shape="24787.33,159549.73 24787.29,159549.75 24787.26,159549.76 24787.23,159549.77 24787.19,159549.79"/>
    </edge>
    <edge id=":1097247479_1" function="internal">
        <lane id=":1097247479_1_0" index="0" disallow="pedestrian bicycle tram rail_urban rail rail_electric rail_fast ship" speed="16.67" length="0.47" shape="24785.92,159546.85 24786.05,159546.79 24786.14,159546.75 24786.23,159546.72 24786.37,159546.68"/>
    </edge>
    <edge id=":1097247495_0" function="internal">
        <lane id=":1097247495_0_0" index="0" disallow="pedestrian bicycle tram rail_urban rail rail_electric rail_fast ship" speed="16.67" length="0.28" shape="24772.05,159556.28 24771.79,159556.38"/>
    </edge>
    <edge id=":1097247495_1" function="internal">
        <lane id=":1097247495_1_0" index="0" disallow="pedestrian bicycle tram rail_urban rail rail_electric rail_fast ship" speed="16.67" length="0.14" shape="24770.66,159553.39 24770.79,159553.34"/>
    </edge>
    <edge id=":1097268338_0" function="internal">
        <lane id=":1097268338_0_0" index="0" disallow="pedestrian bicycle tram rail_urban rail rail_electric rail_fast ship" speed="20.83" length="0.25" shape="32115.88,163207.94 32115.73,163207.74"/>
    </edge>
    <edge id=":1097268338_1" function="internal">
        <lane id=":1097268338_1_0" index="0" disallow="pedestrian bicycle tram rail_urban rail rail_electric rail_fast ship" speed="20.83" length="0.31" shape="32118.29,163205.82 32118.48,163206.07"/>
    </edge>
    <edge id=":1097268339_0" function="internal">
        <lane id=":1097268339_0_0" index="0" disallow="pedestrian bicycle tram rail_urban rail rail_electric rail_fast ship" speed="15.28" length="0.31" shape="32106.18,163195.02 32106.00,163194.76"/>
    </edge>
    <edge id=":1097268339_1" function="internal">
        <lane id=":1097268339_1_0" index="0" disallow="pedestrian bicycle tram rail_urban rail rail_electric rail_fast ship" speed="15.28" length="0.26" shape="32108.59,163192.89 32108.74,163193.09"/>
    </edge>
    <edge id=":1099948390_0" function="internal">
        <lane id=":1099948390_0_0" index="0" disallow="pedestrian bicycle tram rail_urban rail rail_electric rail_fast ship" speed="18.06" length="0.29" shape="23620.70,159787.44 23620.41,159787.47"/>
    </edge>
    <edge id=":1099948390_1" function="internal">
        <lane id=":1099948390_1_0" index="0" disallow="pedestrian bicycle tram rail_urban rail rail_electric rail_fast ship" speed="18.06" length="0.30" shape="23620.09,159784.29 23620.39,159784.26"/>
    </edge>
    <edge id=":1099964479_0" function="internal">
        <lane id=":1099964479_0_0" index="0" disallow="pedestrian bicycle tram rail_urban rail rail_electric rail_fast ship" speed="20.83" length="0.10" shape="24001.89,159748.21 24001.80,159748.22"/>
    </edge>
    <edge id=":1099964479_1" function="internal">
        <lane id=":1099964479_1_0" index="0" disallow="pedestrian bicycle tram rail_urban rail rail_electric rail_fast ship" speed="20.83" length="0.10" shape="24001.44,159745.04 24001.35,159745.05"/>
    </edge>
    <edge id=":11011641692_0" function="internal">
        <lane id=":11011641692_0_0" index="0" disallow="pedestrian bicycle tram rail_urban rail rail_electric rail_fast ship" speed="27.78" length="0.10" shape="194941.23,167956.49 194941.23,167956.49"/>
    </edge>
    <edge id=":11011641692_1" function="internal">
        <lane id=":11011641692_1_0" index="0" disallow="pedestrian bicycle tram rail_urban rail rail_electric rail_fast ship" speed="27.78" length="0.10" shape="194940.69,167953.33 194940.69,167953.33"/>
    </edge>
    <edge id=":11011679006_0" function="internal">
        <lane id=":11011679006_0_0" index="0" disallow="pedestrian bicycle tram rail_urban rail rail_electric rail_fast ship" speed="27.78" length="14.36" shape="206261.81,171247.53 206247.80,171244.38"/>
    </edge>
    <edge id=":11011679006_1" function="internal">
        <lane id=":11011679006_1_0" index="0" disallow="pedestrian bicycle tram rail_urban rail rail_electric rail_fast ship" speed="4.94" length="1.99" shape="206261.81,171247.53 206260.19,171246.38"/>
    </edge>
    <edge id=":11011679006_2" function="internal">
        <lane id=":11011679006_2_0" index="0" disallow="pedestrian bicycle tram rail_urban rail rail_electric rail_fast ship" speed="3.65" length="1.44" shape="206261.81,171247.53 206260.82,171246.48"/>
    </edge>
    <edge id=":11011679006_6" function="internal">
        <lane id=":11011679006_6_0" index="0" disallow="pedestrian bicycle tram rail_urban rail rail_electric rail_fast ship" speed="4.94" length="7.42" shape="206260.19,171246.38 206259.89,171246.17 206259.52,171243.96 206260.54,171241.86 206262.80,171240.82"/>
    </edge>
    <edge id=":11011679006_7" function="internal">
        <lane id=":11011679006_7_0" index="0" disallow="pedestrian bicycle tram rail_urban rail rail_electric rail_fast ship" speed="3.65" length="3.23" shape="206260.82,171246.48 206260.60,171245.62 206261.17,171244.92 206262.52,171244.41"/>
    </edge>
    <edge id=":11011679006_3" function="internal">
        <lane id=":11011679006_3_0" index="0" disallow="pedestrian bicycle tram rail_urban rail rail_electric rail_fast ship" speed="27.78" length="14.36" shape="206248.50,171241.26 206252.09,171241.70 206255.61,171241.57 206259.14,171241.18 206262.80,171240.82"/>
    </edge>
    <edge id=":11011679006_4" function="internal">
        <lane id=":11011679006_4_0" index="0" disallow="pedestrian bicycle tram rail_urban rail rail_electric rail_fast ship" speed="27.78" length="14.36" shape="206248.50,171241.26 206262.52,171244.41"/>
    </edge>
    <edge id=":11011679006_5" function="internal">
        <lane id=":11011679006_5_0" index="0" disallow="pedestrian bicycle tram rail_urban rail rail_electric rail_fast ship" speed="3.65" length="1.44" shape="206248.50,171241.26 206249.50,171242.30"/>
    </edge>
    <edge id=":11011679006_8" function="internal">
        <lane id=":11011679006_8_0" index="0" disallow="pedestrian bicycle tram rail_urban rail rail_electric rail_fast ship" speed="3.65" length="3.23" shape="206249.50,171242.30 206249.71,171243.17 206249.15,171243.86 206247.80,171244.38"/>
    </edge>
    <edge id=":11011679007_0" function="internal">
        <lane id=":11011679007_0_0" index="0" disallow="pedestrian bicycle tram rail_urban rail rail_electric rail_fast ship" speed="27.78" length="13.51" shape="206288.33,171257.07 206285.33,171255.20 206282.59,171253.42 206279.75,171251.90 206276.44,171250.81"/>
    </edge>
    <edge id=":11011679007_1" function="internal">
        <lane id=":11011679007_1_0" index="0" disallow="pedestrian bicycle tram rail_urban rail rail_electric rail_fast ship" speed="4.96" length="9.43" shape="206288.33,171257.07 206286.74,171255.15 206286.72,171252.81 206288.00,171250.98 206290.33,171250.57"/>
    </edge>
    <edge id=":11011679007_2" function="internal">
        <lane id=":11011679007_2_0" index="0" disallow="pedestrian bicycle tram rail_urban rail rail_electric rail_fast ship" speed="27.78" length="13.51" shape="206289.64,171253.70 206276.44,171250.81"/>
    </edge>
    <edge id=":11011679007_3" function="internal">
        <lane id=":11011679007_3_0" index="0" disallow="pedestrian bicycle tram rail_urban rail rail_electric rail_fast ship" speed="3.65" length="1.44" shape="206289.64,171253.70 206288.64,171252.66"/>
    </edge>
    <edge id=":11011679007_6" function="internal">
        <lane id=":11011679007_6_0" index="0" disallow="pedestrian bicycle tram rail_urban rail rail_electric rail_fast ship" speed="3.65" length="3.23" shape="206288.64,171252.66 206288.42,171251.79 206288.98,171251.10 206290.33,171250.57"/>
    </edge>
    <edge id=":11011679007_4" function="internal">
        <lane id=":11011679007_4_0" index="0" disallow="pedestrian bicycle tram rail_urban rail rail_electric rail_fast ship" speed="27.78" length="13.49" shape="206277.15,171247.69 206290.33,171250.57"/>
    </edge>
    <edge id=":11011679007_5" function="internal">
        <lane id=":11011679007_5_0" index="0" disallow="pedestrian bicycle tram rail_urban rail rail_electric rail_fast ship" speed="3.65" length="1.44" shape="206277.15,171247.69 206278.14,171248.74"/>
    </edge>
    <edge id=":11011679007_7" function="internal">
        <lane id=":11011679007_7_0" index="0" disallow="pedestrian bicycle tram rail_urban rail rail_electric rail_fast ship" speed="3.65" length="3.23" shape="206278.14,171248.74 206278.36,171249.60 206277.79,171250.30 206276.44,171250.81"/>
    </edge>
    <edge id=":11011679024_0" function="internal">
        <lane id=":11011679024_0_0" index="0" disallow="pedestrian bicycle tram rail_urban rail rail_electric rail_fast ship" speed="27.78" length="9.04" shape="206570.42,171396.60 206571.04,171399.10 206570.79,171400.94 206570.37,171402.84 206570.47,171405.50"/>
    </edge>
    <edge id=":11011679024_1" function="internal">
        <lane id=":11011679024_1_0" index="0" disallow="pedestrian bicycle tram rail_urban rail rail_electric rail_fast ship" speed="3.65" length="1.44" shape="206570.42,171396.60 206570.15,171398.02"/>
    </edge>
    <edge id=":11011679024_4" function="internal">
        <lane id=":11011679024_4_0" index="0" disallow="pedestrian bicycle tram rail_urban rail rail_electric rail_fast ship" speed="3.65" length="3.23" shape="206570.15,171398.02 206569.57,171398.69 206568.68,171398.64 206567.47,171397.84"/>
    </edge>
    <edge id=":11011679024_2" function="internal">
        <lane id=":11011679024_2_0" index="0" disallow="pedestrian bicycle tram rail_urban rail rail_electric rail_fast ship" speed="10.45" length="7.80" shape="206566.68,171405.32 206567.44,171403.11 206568.00,171401.52 206568.11,171399.96 206567.47,171397.84"/>
    </edge>
    <edge id=":11011679024_3" function="internal">
        <lane id=":11011679024_3_0" index="0" disallow="pedestrian bicycle tram rail_urban rail rail_electric rail_fast ship" speed="5.03" length="3.32" shape="206566.68,171405.32 206567.77,171402.30 206567.84,171402.22"/>
    </edge>
    <edge id=":11011679024_5" function="internal">
        <lane id=":11011679024_5_0" index="0" disallow="pedestrian bicycle tram rail_urban rail rail_electric rail_fast ship" speed="5.03" length="5.91" shape="206567.84,171402.22 206568.76,171401.31 206569.66,171402.38 206570.47,171405.50"/>
    </edge>
    <edge id=":11011679026_0" function="internal">
        <lane id=":11011679026_0_0" index="0" disallow="pedestrian bicycle tram rail_urban rail rail_electric rail_fast ship" speed="27.78" length="0.24" shape="206444.89,171287.84 206444.82,171287.82 206444.78,171287.80 206444.73,171287.79 206444.66,171287.77"/>
    </edge>
    <edge id=":11011679026_1" function="internal">
        <lane id=":11011679026_1_0" index="0" disallow="pedestrian bicycle tram rail_urban rail rail_electric rail_fast ship" speed="27.78" length="0.72" shape="206445.35,171284.65 206445.56,171284.70 206445.70,171284.73 206445.84,171284.78 206446.03,171284.85"/>
    </edge>
    <edge id=":1102355998_0" function="internal">
        <lane id=":1102355998_0_0" index="0" disallow="pedestrian bicycle tram rail_urban rail rail_electric rail_fast ship" speed="13.89" length="0.14" shape="25256.94,159783.17 25256.92,159783.13 25256.90,159783.11 25256.89,159783.08 25256.87,159783.04"/>
    </edge>
    <edge id=":1102355998_1" function="internal">
        <lane id=":1102355998_1_0" index="0" disallow="pedestrian bicycle tram rail_urban rail rail_electric rail_fast ship" speed="13.89" length="0.43" shape="25259.60,159781.39 25259.67,159781.49 25259.71,159781.57 25259.75,159781.65 25259.81,159781.76"/>
    </edge>
    <edge id=":1103930422_0" function="internal">
        <lane id=":1103930422_0_0" index="0" disallow="pedestrian bicycle tram rail_urban rail rail_electric rail_fast ship" speed="16.67" length="0.25" shape="21374.75,158990.35 21374.51,158990.27"/>
    </edge>
    <edge id=":1103930422_1" function="internal">
        <lane id=":1103930422_1_0" index="0" disallow="pedestrian bicycle tram rail_urban rail rail_electric rail_fast ship" speed="13.89" length="0.31" shape="21375.52,158987.23 21375.81,158987.34"/>
    </edge>
    <edge id=":1106522012_0" function="internal">
        <lane id=":1106522012_0_0" index="0" disallow="pedestrian bicycle tram rail_urban rail rail_electric rail_fast ship" speed="13.89" length="0.10" shape="31968.80,163003.69 31968.80,163003.69"/>
    </edge>
    <edge id=":1106522012_1" function="internal">
        <lane id=":1106522012_1_0" index="0" disallow="pedestrian bicycle tram rail_urban rail rail_electric rail_fast ship" speed="13.89" length="0.10" shape="31971.44,163001.89 31971.44,163001.89"/>
    </edge>
    <edge id=":11271419164_0" function="internal">
        <lane id=":11271419164_0_0" index="0" disallow="pedestrian bicycle tram rail_urban rail rail_electric rail_fast ship" speed="16.67" length="0.30" shape="10523.66,66433.34 10523.91,66433.16"/>
        <lane id=":11271419164_0_1" index="1" disallow="pedestrian bicycle tram rail_urban rail rail_electric rail_fast ship" speed="16.67" length="0.30" shape="10525.50,66435.95 10525.75,66435.78"/>
    </edge>
    <edge id=":11271419165_0" function="internal">
        <lane id=":11271419165_0_0" index="0" disallow="pedestrian bicycle tram rail_urban rail rail_electric rail_fast ship" speed="16.67" length="0.29" shape="10545.23,66433.02 10544.98,66433.21"/>
        <lane id=":11271419165_0_1" index="1" disallow="pedestrian bicycle tram rail_urban rail rail_electric rail_fast ship" speed="16.67" length="0.29" shape="10543.28,66430.49 10543.06,66430.65"/>
    </edge>
    <edge id=":1170602402_0" function="internal">
        <lane id=":1170602402_0_0" index="0" disallow="pedestrian bicycle tram rail_urban rail rail_electric rail_fast ship" speed="25.00" length="0.28" shape="27623.73,9644.23 27623.71,9644.01"/>
        <lane id=":1170602402_0_1" index="1" disallow="pedestrian bicycle tram rail_urban rail rail_electric rail_fast ship" speed="25.00" length="0.28" shape="27626.92,9643.93 27626.89,9643.65"/>
        <lane id=":1170602402_0_2" index="2" disallow="pedestrian bicycle tram rail_urban rail rail_electric rail_fast ship" speed="25.00" length="0.28" shape="27630.10,9643.63 27630.07,9643.29"/>
    </edge>
    <edge id=":1170602409_0" function="internal">
        <lane id=":1170602409_0_0" index="0" disallow="pedestrian bicycle tram rail_urban rail rail_electric rail_fast ship" speed="25.00" length="0.41" shape="27638.51,9964.64 27638.51,9964.37"/>
        <lane id=":1170602409_0_1" index="1" disallow="pedestrian bicycle tram rail_urban rail rail_electric rail_fast ship" speed="25.00" length="0.41" shape="27641.71,9964.74 27641.71,9964.34"/>
        <lane id=":1170602409_0_2" index="2" disallow="pedestrian bicycle tram rail_urban rail rail_electric rail_fast ship" speed="25.00" length="0.41" shape="27644.91,9964.84 27644.91,9964.31"/>
    </edge>
    <edge id=":1170602448_0" function="internal">
        <lane id=":1170602448_0_0" index="0" disallow="pedestrian bicycle tram rail_urban rail rail_electric rail_fast ship" speed="25.00" length="8.21" shape="27513.32,8973.58 27512.62,8971.27 27511.78,8969.79 27510.95,8968.31 27510.27,8966.00"/>
        <lane id=":1170602448_0_1" index="1" disallow="pedestrian bicycle tram rail_urban rail rail_electric rail_fast ship" speed="25.00" length="8.21" shape="27513.32,8973.58 27513.11,8971.18 27513.35,8969.51 27513.60,8967.83 27513.42,8965.42"/>
        <lane id=":1170602448_0_2" index="2" disallow="pedestrian bicycle tram rail_urban rail rail_electric rail_fast ship" speed="25.00" length="8.21" shape="27516.46,8972.98 27516.26,8970.59 27516.50,8968.92 27516.75,8967.25 27516.57,8964.85"/>
    </edge>
    <edge id=":1170602500_0" function="internal">
        <lane id=":1170602500_0_0" index="0" disallow="pedestrian bicycle tram rail_urban rail rail_electric rail_fast ship" speed="25.00" length="0.30" shape="27584.66,9253.16 27584.71,9253.46"/>
        <lane id=":1170602500_0_1" index="1" disallow="pedestrian bicycle tram rail_urban rail rail_electric rail_fast ship" speed="25.00" length="0.30" shape="27581.52,9253.77 27581.57,9254.07"/>
        <lane id=":1170602500_0_2" index="2" disallow="pedestrian bicycle tram rail_urban rail rail_electric rail_fast ship" speed="25.00" length="0.30" shape="27578.37,9254.38 27578.43,9254.68"/>
    </edge>
    <edge id=":1170602509_0" function="internal">
        <lane id=":1170602509_0_0" index="0" disallow="pedestrian bicycle tram rail_urban rail rail_electric rail_fast ship" speed="25.00" length="0.29" shape="27611.49,9390.89 27611.56,9391.22"/>
        <lane id=":1170602509_0_1" index="1" disallow="pedestrian bicycle tram rail_urban rail rail_electric rail_fast ship" speed="25.00" length="0.29" shape="27608.35,9391.51 27608.41,9391.79"/>
        <lane id=":1170602509_0_2" index="2" disallow="pedestrian bicycle tram rail_urban rail rail_electric rail_fast ship" speed="25.00" length="0.29" shape="27605.21,9392.12 27605.26,9392.36"/>
    </edge>
    <edge id=":1170602514_0" function="internal">
        <lane id=":1170602514_0_0" index="0" disallow="pedestrian bicycle tram rail_urban rail rail_electric rail_fast ship" speed="25.00" length="0.28" shape="27646.35,9634.68 27646.38,9635.02"/>
        <lane id=":1170602514_0_1" index="1" disallow="pedestrian bicycle tram rail_urban rail rail_electric rail_fast ship" speed="25.00" length="0.28" shape="27643.17,9634.99 27643.19,9635.27"/>
        <lane id=":1170602514_0_2" index="2" disallow="pedestrian bicycle tram rail_urban rail rail_electric rail_fast ship" speed="25.00" length="0.28" shape="27639.99,9635.31 27640.00,9635.52"/>
    </edge>
    <edge id=":1170602601_0" function="internal">
        <lane id=":1170602601_0_0" index="0" disallow="pedestrian bicycle tram rail_urban rail rail_electric rail_fast ship" speed="25.00" length="0.30" shape="27586.41,9385.54 27586.36,9385.25"/>
        <lane id=":1170602601_0_1" index="1" disallow="pedestrian bicycle tram rail_urban rail rail_electric rail_fast ship" speed="25.00" length="0.30" shape="27589.56,9384.99 27589.51,9384.70"/>
        <lane id=":1170602601_0_2" index="2" disallow="pedestrian bicycle tram rail_urban rail rail_electric rail_fast ship" speed="25.00" length="0.30" shape="27592.72,9384.45 27592.66,9384.15"/>
    </edge>
    <edge id=":1195950988_0" function="internal">
        <lane id=":1195950988_0_0" index="0" disallow="pedestrian bicycle tram rail_urban rail rail_electric rail_fast ship" speed="22.22" length="0.31" shape="20084.04,88444.73 20084.01,88444.42"/>
    </edge>
    <edge id=":1195950988_1" function="internal">
        <lane id=":1195950988_1_0" index="0" disallow="pedestrian bicycle tram rail_urban rail rail_electric rail_fast ship" speed="22.22" length="0.26" shape="20087.19,88444.11 20087.22,88444.37"/>
    </edge>
    <edge id=":11982672420_0" function="internal">
        <lane id=":11982672420_0_0" index="0" disallow="pedestrian bicycle tram rail_urban rail rail_electric rail_fast ship" speed="16.67" length="0.30" shape="51938.27,178576.29 51938.04,178576.09"/>
    </edge>
    <edge id=":11982672420_1" function="internal">
        <lane id=":11982672420_1_0" index="0" disallow="pedestrian bicycle tram rail_urban rail rail_electric rail_fast ship" speed="16.67" length="0.30" shape="51940.14,178573.68 51940.37,178573.87"/>
    </edge>
    <edge id=":1238602889_0" function="internal">
        <lane id=":1238602889_0_0" index="0" disallow="pedestrian bicycle tram rail_urban rail rail_electric rail_fast ship" speed="25.00" length="0.24" shape="122926.38,170589.06 122926.17,170589.01"/>
        <lane id=":1238602889_0_1" index="1" disallow="pedestrian bicycle tram rail_urban rail rail_electric rail_fast ship" speed="25.00" length="0.24" shape="122927.12,170585.95 122926.86,170585.89"/>
    </edge>
    <edge id=":1238602889_2" function="internal">
        <lane id=":1238602889_2_0" index="0" disallow="pedestrian bicycle tram rail_urban rail rail_electric rail_fast ship" speed="25.00" length="0.34" shape="122928.25,170579.64 122928.61,170579.72"/>
        <lane id=":1238602889_2_1" index="1" disallow="pedestrian bicycle tram rail_urban rail rail_electric rail_fast ship" speed="25.00" length="0.34" shape="122927.56,170582.77 122927.86,170582.84"/>
    </edge>
    <edge id=":12443866790_0" function="internal">
        <lane id=":12443866790_0_0" index="0" disallow="pedestrian bicycle tram rail_urban rail rail_electric rail_fast ship" speed="25.00" length="7.98" shape="87.76,132102.54 86.82,132094.61"/>
    </edge>
    <edge id=":12443866790_1" function="internal">